%chk=166-an.chk
%nproc=8
%mem=30GB
#P UB3LYP/6-311++G(d,p) nosym opt freq

Reduced

-2 1
N    -1.9353952128    2.8895213142   -0.0855224119
C    -2.0577209870    1.4771038968    0.0333117837
C    -3.2815601232    0.8441367136    0.0528218155
C    -3.3402197403   -0.5407511314    0.1711003372
C    -2.1829225569   -1.2673641804    0.2674549215
N    -2.2525236912   -2.6886939577    0.3885702360
C    -0.9427498898   -0.6618104509    0.2507929049
C     0.2919643865   -1.4317738669    0.3531335948
O     0.2574323088   -2.6840233143    0.4606169078
C     1.6105769854   -0.7803866268    0.3347603514
C     2.7764116866   -1.5263340191    0.4330438278
C     4.0012108792   -0.8913435544    0.4134009068
C     4.0214174921    0.4823445434    0.2949848132
C     2.8575484767    1.2072884378    0.1985755832
C     1.6134642271    0.5928363048    0.2158797729
C     0.3858721009    1.3842330564    0.1118890470
O     0.4603846274    2.6539413211    0.0040408708
C    -0.9072976063    0.7191693343    0.1321805208
H    -1.5645757393    3.3840461932   -0.9075125943
H    -2.2419579720    3.5115905446    0.7197207901
H    -4.1555796163    1.4545056622   -0.0252931265
H    -4.3283045603   -1.0071226860    0.1829747749
H    -2.6769333696   -3.1118051584    1.2265086182
H    -1.8606839181   -3.2719711419   -0.3968224394
H     2.7016698339   -2.6113786400    0.5248817067
H     4.9233144885   -1.4433115291    0.4878488416
H     4.9810957058    1.0224297263    0.2759305769
H     2.8460617842    2.2949232084    0.1040531032


