%chk=151.chk
%nproc=8
%mem=30GB
#P UB3LYP/6-311++G(d,p) nosym opt freq

Oxidized

0 1
N    -4.5363331768   -0.7803210925   -0.7817582331
C    -3.2377684138   -0.5898741689   -0.2331804377
C    -3.0193618136   -0.6824613030    1.1321148606
C    -1.7700497815   -0.5013704483    1.6816110308
C    -0.6672950878   -0.2165593220    0.8900793197
C     0.6519401258   -0.0264592854    1.4818127072
O     0.8316078281   -0.1141891078    2.7231258008
C     1.7694835195    0.2727649969    0.5713979656
C     3.0207957810    0.4557407746    1.1054145531
C     4.0563822054    0.7333191926    0.2586418273
C     3.8824258818    0.8347344177   -1.1114679878
C     2.6271957152    0.6521214195   -1.6566938903
C     1.5853901183    0.3716029152   -0.7918704599
C     0.2320670765    0.1714139518   -1.3460091065
O     0.0771729393    0.2646993607   -2.5964177762
C    -0.8836903145   -0.1242369735   -0.4686721681
C    -2.1364771758   -0.3060608571   -1.0173537534
H    -5.4223775755   -0.4735931944   -0.3254481763
H    -4.6293512001   -1.2578841318   -1.7034653973
H    -3.8814775057   -0.9065360968    1.7653792089
H    -1.6008192204   -0.5743048171    2.7516736760
H     3.1354335991    0.3722125305    2.1789684436
H     5.0590313781    0.8819179653    0.6663001581
H     4.7174243877    1.0544380992   -1.7522071904
H     2.4440573514    0.7222631956   -2.7250292238
H    -2.3054066417   -0.2333780210   -2.0842737679


