%chk=044-rad.chk
%nproc=8
%mem=30GB
#P UB3LYP/6-311++G(d,p) nosym  opt freq

Radical

-1 2
C                 -0.9021250000      2.1044100000      0.0007650000
C                 -2.0637890000      1.2650430000     -0.0007920000
C                 -2.0237150000     -0.0920610000     -0.0011200000
C                 -0.8187580000     -0.8681600000      0.0000420000
C                  0.3973530000     -0.0392090000      0.0018400000
C                  0.3529940000      1.3439240000      0.0021620000
O                 -0.9414540000      3.3656190000      0.0004930000
O                 -0.8061820000     -2.1309050000     -0.0008600000
C                  1.5961060000      2.1998160000      0.0037790000
C                  1.6999530000     -0.8084600000      0.0031070000
O                 -3.3158640000     -0.6107570000     -0.0068430000
O                 -3.3833100000      1.7078250000     -0.0062820000
C                 -4.1793660000      0.5241640000     -0.0002850000
H                  2.5099500000      1.6047740000      0.0048200000
H                  1.6081660000      2.8624380000      0.8763900000
H                  1.6102190000      2.8627360000     -0.8686690000
H                  1.4765060000     -1.8761440000      0.0026050000
H                  2.3106700000     -0.5843560000      0.8862160000
H                  2.3124740000     -0.5839980000     -0.8783850000
H                 -4.8141890000      0.5061110000     -0.8972230000
H                 -4.8008600000      0.5059790000      0.9063410000





