%chk=192-rad.chk
%nproc=8
%mem=30GB
#P UB3LYP/6-311++G(d,p) nosym opt freq SCF=YQC Int=Acc2E=11

Radical

-1 2
C                  5.41002800   -3.76861300   -2.52627200
 O                  4.60338300   -2.85027500   -1.82132200
 C                  5.17283100   -2.07997000   -0.85058100
 C                  6.52081800   -2.17867900   -0.53590100
 C                  7.07959000   -1.36936700    0.47106500
 C                  6.29337800   -0.47122300    1.15300800
 C                  4.92038300   -0.34804800    0.85747200
 C                  4.16425300    0.64921600    1.64473200
 O                  4.75702200    1.33052800    2.50408900
 C                  2.73322200    0.77638400    1.35309300
 C                  1.89957200    1.69796500    2.04211300
 O                  2.45985500    2.50047000    3.01056600
 C                  0.54267000    1.81815400    1.74214500
 C                 -0.28585500    2.90537100    2.39778300
 C                 -1.45932100    3.32512000    1.51513400
 O                 -2.20478100    4.31082900    2.26483300
 C                 -2.31193800    2.10046700    1.21406800
 C                 -1.54029500    0.99292400    0.48101200
 O                 -2.15614700   -0.26896800    0.87829900
 C                 -2.75112500   -1.00390500   -0.12805400
 C                 -2.94307300   -2.43699700    0.35020700
 C                 -3.76009100   -3.26880100   -0.66373600
 N                 -3.02352100   -3.66890200   -1.87702900
 C                 -5.04081400   -2.50258300   -1.06484700
 O                 -5.96251000   -2.45034800    0.02752100
 C                 -4.68408400   -1.08151400   -1.53026900
 C                 -5.87818300   -0.24480600   -1.96285000
 O                 -4.04072300   -0.40987300   -0.43876200
 C                 -0.05811400    0.96593000    0.78389200
 C                  0.74175100    0.06956800    0.07362600
 O                  0.17139600   -0.69437600   -0.87534100
 C                  2.14268400   -0.04011700    0.33786300
 C                  2.90792200   -1.00654100   -0.43719200
 O                  2.31449600   -1.70188400   -1.33886300
 C                  4.32377000   -1.15273200   -0.15553700
 C                 -1.04278800    4.06901000    0.22381300
 O                 -1.76048900    4.05833500   -0.75888200
 C                  0.21174500    4.92311500    0.21011800
 O                  0.29096400    5.69975600   -0.96284300
 H                  4.74419700   -4.25701100   -3.23812900
 H                  5.84618900   -4.52603700   -1.86206800
 H                  6.21891400   -3.26808300   -3.07411200
 H                  7.15583600   -2.87817800   -1.06180500
 H                  8.13648000   -1.46259900    0.70075200
 H                  6.69197100    0.16702800    1.93062400
 H                  1.75235600    2.88436000    3.53564200
 H                  0.32387900    3.78734800    2.61964600
 H                 -0.72135500    2.58313100    3.35330900
 H                 -3.04238400    4.45398200    1.80789800
 H                 -3.19572500    2.37152800    0.63187400
 H                 -2.65027800    1.70123500    2.17369000
 H                 -1.68001000    1.09814400   -0.59799200
 H                 -2.14129700   -0.96081900   -1.03874800
 H                 -1.96245000   -2.89040400    0.51480800
 H                 -3.45548500   -2.40205600    1.31756600
 H                 -4.09096700   -4.19165500   -0.17966900
 H                 -2.47340600   -2.90002500   -2.24821700
 H                 -2.35583100   -4.39833500   -1.64857900
 H                 -5.53790000   -3.05284400   -1.86657500
 H                 -5.65588000   -1.74811400    0.61610900
 H                 -3.98050800   -1.15664900   -2.37349100
 H                 -6.37412600   -0.70950200   -2.81980000
 H                 -5.54719300    0.75548800   -2.25002400
 H                 -6.60508200   -0.15494100   -1.15364300
 H                  0.97499800   -1.25010900   -1.24836700
 H                  0.20556900    5.57692700    1.09018800
 H                  1.08027700    4.25607700    0.30152400
 H                 -0.41867100    5.37749700   -1.54058700






































