%chk=254.chk
%nproc=8
%mem=30GB
#P UB3LYP/6-311++G(d,p) nosym opt freq SCRF=(PCM,Solvent=n,n-DiMethylFormamide)

Oxidized

0 1
C                 -1.8553760000      1.7421730000     -0.7954900000
C                 -2.6110940000      0.8871480000     -1.5897300000
C                 -2.1500160000     -0.4128810000     -1.8540680000
C                 -0.6428370000      1.3114370000     -0.2619070000
C                 -0.1837620000      0.0168890000     -0.5243540000
C                 -0.9398410000     -0.8410410000     -1.3200320000
C                  0.1621030000      2.2342400000      0.5861540000
C                  1.4634990000      1.7489430000      1.1386600000
C                  1.9013200000      0.4848770000      0.9049200000
C                  1.1107140000     -0.4529730000      0.0461380000
O                 -0.2295950000      3.3651670000      0.8276760000
O                  1.5166550000     -1.5813540000     -0.1835860000
C                  2.2006810000      2.7691190000      1.9593440000
C                  3.1990560000     -0.0736410000      1.4314700000
C                  4.3828700000      0.1519080000      0.4662160000
C                  5.6900220000     -0.4559420000      0.9855310000
C                  6.8766820000     -0.2415450000      0.0391630000
C                  8.1869510000     -0.8486750000      0.5535890000
C                  9.3739900000     -0.6373460000     -0.3929670000
C                 10.6844570000     -1.2453390000      0.1197430000
C                 11.8714710000     -1.0349870000     -0.8267830000
C                 13.1826080000     -1.6428550000     -0.3155360000
C                 14.3623100000     -1.4279240000     -1.2681970000
Cl                -3.0674010000     -1.5140660000     -2.8450780000
Cl                -4.1223560000      1.4607040000     -2.2402210000
H                 -2.2012970000      2.7458700000     -0.5855930000
H                 -0.5761730000     -1.8409570000     -1.5173070000
H                  2.3131010000      3.6957940000      1.3912730000
H                  3.1840620000      2.4238030000      2.2687110000
H                  1.6202580000      3.0315370000      2.8491300000
H                  3.0739220000     -1.1481250000      1.5801440000
H                  3.4309650000      0.3652880000      2.4042580000
H                  4.5170800000      1.2272710000      0.2991440000
H                  4.1366860000     -0.2871360000     -0.5062130000
H                  5.5461320000     -1.5310430000      1.1498100000
H                  5.9269610000     -0.0256540000      1.9674150000
H                  7.0175790000      0.8342120000     -0.1279330000
H                  6.6384580000     -0.6728810000     -0.9414250000
H                  8.0452140000     -1.9240800000      0.7214580000
H                  8.4252220000     -0.4172680000      1.5345310000
H                  9.5157520000      0.4382130000     -0.5608710000
H                  9.1350240000     -1.0682600000     -1.3738490000
H                 10.5424360000     -2.3208290000      0.2877700000
H                 10.9236230000     -0.8143960000      1.1007130000
H                 12.0145840000      0.0404800000     -0.9952830000
H                 11.6331730000     -1.4659260000     -1.8080750000
H                 13.0402450000     -2.7174150000     -0.1476430000
H                 13.4216650000     -1.2119450000      0.6644420000
H                 14.1677840000     -1.8785740000     -2.2466530000
H                 15.2805870000     -1.8729520000     -0.8749020000
H                 14.5523650000     -0.3618310000     -1.4283670000


