%chk=144-PCM.chk
%nproc=8
%mem=30GB
#P UB3LYP/6-311++G(d,p) SCRF=(PCM,Solvent=n,n-DiMethylFormamide)

Quinone PCM in DMF 

0 1
C                 -3.0061280000      3.7217760000      0.1435510000
C                 -4.2691320000      3.1453650000      0.2060880000
C                 -4.4074330000      1.7548780000      0.1745790000
C                 -1.8686660000      2.9137340000      0.0493100000
C                 -2.0077510000      1.5142980000      0.0175180000
C                 -3.2826110000      0.9438330000      0.0806400000
C                 -0.5260440000      3.5598210000     -0.0164590000
C                  0.6633970000      2.6614910000     -0.1100310000
C                  0.5233050000      1.2634810000     -0.1415030000
C                 -0.8178100000      0.6178530000     -0.0824780000
C                  1.9342930000      3.2356100000     -0.1667080000
C                  3.0512560000      2.4188910000     -0.2549640000
C                  2.9298900000      1.0279630000     -0.2933600000
C                  1.6650780000      0.4607370000     -0.2337230000
O                 -0.4011030000      4.7731040000      0.0053490000
O                 -0.9401440000     -0.5960270000     -0.1146360000
H                 -3.3666500000     -0.1355460000      0.0547860000
H                  1.5400130000     -0.6145160000     -0.2600470000
H                 -2.8756110000      4.7965980000      0.1663320000
H                  2.0381480000      4.3127800000     -0.1452730000
H                  3.8106690000      0.4048800000     -0.3617680000
H                 -5.3935630000      1.3072450000      0.2236440000
O                  4.2790540000      3.0578310000     -0.3875540000
C                  5.3485260000      2.7047840000      0.4070760000
C                  6.5405030000      3.5507090000      0.0561720000
O                  5.2974340000      1.8537630000      1.2495390000
H                 -5.1478660000      3.7759460000      0.2794420000
H                  6.3174150000      4.6014720000      0.2558280000
H                  6.7643630000      3.4608040000     -1.0088540000
H                  7.3952700000      3.2343250000      0.6497330000





