%chk=024-an-PCM.chk
%nproc=8
%mem=30GB
#P UB3LYP/6-311++G(d,p) SCRF=(PCM,Solvent=n,n-DiMethylFormamide)

Reduced 

-2 1
C                 -1.6950720000      0.8519370000      1.6552070000
C                 -2.8156470000      1.1794530000      0.8102520000
C                 -2.7459270000      1.0285030000     -0.5759780000
C                 -1.6150790000      0.5960450000     -1.3199550000
C                 -0.4945210000      0.2684800000     -0.4749960000
C                 -0.5642360000      0.4194450000      0.9112340000
O                 -1.5054410000      0.5292610000     -2.6102550000
O                 -1.8046260000      0.9189730000      2.9455030000
Br                 1.0437580000     -0.0325150000      1.9696810000
Br                -4.3539410000      1.4804030000     -1.6344220000
N                  0.6671050000     -0.1628630000     -1.1765940000
N                 -3.9772940000      1.6107220000      1.5118580000
H                  0.4803220000      0.0619590000     -2.1566210000
H                  1.5100200000      0.2954020000     -0.8418330000
H                 -3.7904990000      1.3858480000      2.4918700000
H                 -4.8201920000      1.1524380000      1.1770800000





