%chk=153-an-PCM.chk
%nproc=8
%mem=30GB
#P UB3LYP/6-311++G(d,p) SCRF=(PCM,Solvent=n,n-DiMethylFormamide)

Reduced 

-2 1
N                 -2.7866990000     -2.0736430000      0.3379190000
C                 -2.4900330000     -0.7119450000      0.1730520000
C                 -3.5254260000      0.2117540000      0.0691740000
C                 -3.2555480000      1.5794770000     -0.1836430000
C                 -1.9583770000      2.0067280000     -0.3359310000
C                 -0.8636130000      1.1050290000     -0.2172860000
C                  0.4692120000      1.6422860000     -0.3589570000
O                  0.6865760000      2.8894100000     -0.6000870000
C                  1.5405500000      0.6891250000     -0.2064210000
C                  2.8637520000      1.1788220000     -0.3369720000
C                  3.9660110000      0.3691310000     -0.2113710000
C                  3.7765750000     -1.0171370000      0.0434730000
C                  2.5013020000     -1.5173870000      0.1811590000
Cl                 2.4713220000     -3.3028410000      0.4358980000
C                  1.3083820000     -0.7327530000      0.0911160000
C                 -0.0290490000     -1.2417100000      0.2825490000
O                 -0.2551930000     -2.4667580000      0.6523600000
C                 -1.1092710000     -0.2940830000      0.0628400000
H                 -3.5978800000     -2.2380130000      0.9191220000
H                 -1.9143190000     -2.5719140000      0.6110150000
H                 -4.5524860000     -0.1447480000      0.1400930000
H                 -4.0830350000      2.2832610000     -0.2678010000
H                 -1.7100900000      3.0419620000     -0.5410250000
H                  2.9509900000      2.2406640000     -0.5426470000
H                  4.9737040000      0.7663950000     -0.3138810000
H                  4.6226450000     -1.6911120000      0.1162540000





