%chk=249.chk
%nproc=8
%mem=30GB
#P UB3LYP/6-311++G(d,p) nosym opt freq

Oxidized

0 1
C          6.25562       -5.53090        0.73289
C          7.06523       -5.29908       -0.38005
C          6.80248       -4.21592       -1.21554
C          5.17844       -4.67653        1.01347
C          4.91641       -3.59968        0.18228
C          5.73037       -3.36677       -0.93677
C          4.33574       -4.92818        2.18981
C          3.20438       -3.99052        2.48811
C          2.92214       -2.95413        1.66806
C          3.79209       -2.69734        0.46563
O          4.57018       -5.90132        2.89864
O          3.58830       -1.74085       -0.27601
H          7.89975       -5.96339       -0.59321
C          1.79592       -1.92764        1.75508
H          7.43107       -4.03098       -2.08378
C          2.47674       -4.31308        3.76507
C          0.60137       -2.14798        2.68953
C         -0.47989       -1.08289        2.46739
C         -1.64979       -1.27056        3.43516
H          6.46785       -6.37937        1.38168
H          5.53190       -2.52207       -1.59478
H          1.37042       -1.82530        0.74671
H          2.24897       -0.95761        2.00088
H          2.99603       -5.05286        4.38225
H          1.48385       -4.72015        3.55400
H          2.39546       -3.42712        4.40021
H          0.92321       -2.08720        3.73285
H          0.16540       -3.13815        2.51668
H         -0.84500       -1.13748        1.43463
H         -0.04590       -0.08507        2.60553
H         -1.28248       -1.22194        4.46754
H         -2.08753       -2.26632        3.29448
C         -2.72490       -0.20319        3.22468
C         -3.88011       -0.37711        4.21210
C         -4.95327        0.69371        4.00913
C         -6.09942        0.52793        5.00843
C         -7.17154        1.59871        4.80831
C         -8.30906        1.44075        5.80466
H         -3.10567       -0.26222        2.19783
H         -2.28302        0.79292        3.34921
H         -3.49661       -0.32202        5.23825
H         -4.32489       -1.37174        4.08622
H         -5.34480        0.63233        2.98644
H         -4.50632        1.68857        4.12529
H         -5.70673        0.58828        6.03083
H         -6.54719       -0.46664        4.89270
H         -7.57372        1.53739        3.79039
H         -6.72910        2.59509        4.92309
H         -8.79394        0.46544        5.69527
H         -9.06472        2.21590        5.64329
H         -7.94491        1.53031        6.83313








