%chk=085-rad.chk
%nproc=8
%mem=30GB
#P UB3LYP/6-311++G(d,p) nosym  opt freq SCRF=(PCM,Solvent=n,n-DiMethylFormamide)

Radical

-1 2
C                 -3.5119920000      0.6853210000     -0.1981900000
O                 -2.7659420000     -0.5094320000     -0.1918940000
C                 -1.4157260000     -0.4190510000      0.0438260000
C                 -0.7500320000      0.7603920000      0.2675580000
C                  0.6713780000      0.8332870000      0.5288020000
O                  1.2521490000      1.9310270000      0.7760290000
C                  1.3661830000     -0.4463080000      0.4962640000
C                  0.6987410000     -1.6241320000      0.2734130000
C                 -0.7213040000     -1.7105780000      0.0394630000
O                 -1.3191220000     -2.8006640000     -0.1630680000
O                  2.7209080000     -0.5135680000      0.7812190000
C                  3.5686190000      0.2795640000     -0.0465100000
H                 -4.5452110000      0.3969040000     -0.4005290000
H                 -3.1696970000      1.3773910000     -0.9793600000
H                 -3.4633930000      1.2031550000      0.7690370000
H                 -1.2627440000      1.7145520000      0.2827080000
H                  1.2515830000     -2.5576010000      0.2761970000
H                  3.5069210000     -0.0557150000     -1.0917900000
H                  3.3019880000      1.3356440000      0.0209420000
H                  4.5866930000      0.1198110000      0.3176780000


