%chk=252-an.chk
%nproc=8
%mem=30GB
#P UB3LYP/6-311++G(d,p) nosym opt freq SCF=YQC Int=Acc2E=11

Reduced

-2 1
C                 -2.65919200   -4.04859800    4.04628900
 C                 -3.23857900   -5.22625400    3.60704900
 C                 -4.58323000   -5.22956400    3.17740700
 C                 -3.38547000   -2.84052900    4.07605100
 C                 -4.74317000   -2.84488800    3.64262400
 C                 -5.31446400   -4.05477800    3.19893500
 C                 -2.73557400   -1.61302100    4.54821700
 C                 -3.55375100   -0.41797800    4.55312600
 C                 -4.87888300   -0.42398600    4.11435100
 C                 -5.54556000   -1.61929000    3.65106600
 O                 -1.52465500   -1.61515300    4.92602200
 O                 -6.75567300   -1.61249600    3.26841000
 H                 -2.66107600   -6.14691300    3.59334200
 H                 -5.04197000   -6.15235000    2.83212500
 C                 -2.89304800    0.84491100    5.05169600
 H                 -1.62860300   -4.01492100    4.38230100
 H                 -6.34970700   -4.02549100    2.87691500
 H                 -2.75555300    1.58312600    4.24858500
 H                 -1.90782600    0.59337800    5.44642500
 H                 -3.48165300    1.33142800    5.83754700
 C                 -5.71896300    0.84268900    4.08883500
 C                 -6.54616500    1.01777500    5.33773000
 C                 -6.65827500    2.08884900    6.13798900
 C                 -7.56804400    2.05124600    7.35062800
 C                 -8.79658700    2.99194300    7.24814200
 C                 -9.69821500    2.91692600    8.44908200
 C                 -9.97442000    3.86838400    9.35303200
 C                 -5.91819100    3.39024800    5.92904600
 C                -10.92644000    3.59354400   10.50035800
 C                -12.24440100    4.40645000   10.43559300
 C                -13.18205400    4.09340700   11.56960100
 C                -13.60857200    4.90282200   12.55014900
 C                 -9.38317400    5.25895500    9.32637300
 C                -13.18801700    6.34608100   12.70261000
 C                -14.57155200    4.39647800   13.60535300
 C                -15.96625900    5.07051500   13.56586000
 C                -16.91296400    4.51207400   14.59323400
 C                -17.47641800    5.13675100   15.63779500
 C                -17.23250100    6.58408700   15.99615200
 C                -18.42302300    4.39346900   16.55869100
 C                -19.88133000    4.91548700   16.52509800
 C                -20.80783100    4.11053800   17.39503900
 C                -21.51012100    4.51055000   18.46545700
 C                -21.47503200    5.91008100   19.03334300
 C                -22.40901600    3.53640200   19.19943300
 C                -23.91931100    3.87068300   19.10421200
 C                -24.78012500    2.83804000   19.77954700
 C                -25.61603500    2.98641600   20.81774500
 C                -25.87925300    4.29526900   21.52379400
 C                -26.39119100    1.79606900   21.34789900
 C                -25.94258500    1.31038300   22.74987500
 C                -26.82066700    0.21115800   23.28117600
 C                -26.50734500   -1.06631200   23.53662700
 C                -25.14417500   -1.67854000   23.32997100
 C                -27.54497900   -2.02703800   24.06590800
 H                 -6.41922900    0.73735900    3.25096900
 H                 -5.09551100    1.71888700    3.89948000
 H                 -7.12665700    0.13280600    5.59152900
 H                 -7.00084500    2.33059800    8.25022200
 H                 -7.91956800    1.02677000    7.50814200
 H                 -9.36675300    2.69874200    6.35741800
 H                 -8.46294500    4.01695100    7.07321400
 H                -10.17220100    1.94572200    8.59548900
 H                 -5.15500800    3.31244700    5.15526700
 H                 -5.42355500    3.70715800    6.85657700
 H                 -6.59633800    4.20394700    5.64111800
 H                -10.43057500    3.82447100   11.45286300
 H                -11.16920600    2.52644000   10.52534000
 H                -12.74035500    4.16722500    9.48591700
 H                -12.01852400    5.47393500   10.40081600
 H                -13.54635200    3.06577900   11.58333000
 H                 -8.58422800    5.36177000    8.59278000
 H                 -8.97084800    5.51603600   10.30946300
 H                -10.14214100    6.01623500    9.09721800
 H                -12.36817500    6.62170700   12.03943200
 H                -12.86699100    6.54145600   13.73255800
 H                -14.02049200    7.02990200   12.50109500
 H                -14.14156400    4.56268500   14.60205800
 H                -14.69727800    3.31454500   13.49575400
 H                -16.38988500    4.91081700   12.56537400
 H                -15.85872000    6.15045000   13.68272200
 H                -17.15881100    3.45879900   14.45518900
 H                -16.41739600    7.03347000   15.42808800
 H                -16.98882700    6.67648600   17.06141000
 H                -18.12708300    7.19492700   15.82874100
 H                -18.05875600    4.46677200   17.59204600
 H                -18.42149900    3.32923500   16.30131800
 H                -20.23378100    4.86504000   15.48585600
 H                -19.90342100    5.97053400   16.80375100
 H                -20.90980200    3.06594900   17.09915400
 H                -20.69570200    6.53216100   18.59174800
 H                -21.30268800    5.87737400   20.11616600
 H                -22.43083500    6.42643400   18.88730600
 H                -22.13126600    3.51244300   20.26153000
 H                -22.24559700    2.52604700   18.81012200
 H                -24.18659500    3.92187500   18.04031600
 H                -24.10299800    4.86439900   19.51611300
 H                -24.69304000    1.83621100   19.35770100
 H                -25.32427500    5.13283800   21.09993300
 H                -25.62049500    4.23444100   22.58690100
 H                -26.94736300    4.54374600   21.47941600
 H                -26.30626100    0.95913400   20.64813800
 H                -27.45793200    2.05423000   21.39717500
 H                -25.98237800    2.15421600   23.45024500
 H                -24.89557600    1.00407500   22.69843700
 H                -27.85101800    0.51317700   23.47090800
 H                -24.41030900   -0.97776400   22.93092500
 H                -25.20838300   -2.52964100   22.63971200
 H                -24.75379100   -2.07600200   24.27551800
 H                -28.51555600   -1.54395900   24.20711300
 H                -27.23345500   -2.45290500   25.02815500
 H                -27.68166900   -2.87452500   23.38110600














