%chk=009-an.chk
%nproc=8
%mem=30GB
#P UB3LYP/6-311++G(d,p) nosym opt freq

Reduced

-2 1
Cl    2.3556023496   -2.0257181275    0.0546855049
C     1.0483244625   -0.8637353317    0.0236518587
C     1.2302601436    0.4329684206    0.0018468501
Cl    2.8849750796    1.0204043504    0.0042684490
C     0.1346742103    1.4087398531   -0.0241849489
O     0.3667453739    2.6543989937   -0.0446887870
C    -1.2291841087    0.8929491090   -0.0255944832
C    -1.4507666717   -0.4188284547   -0.0038294739
C    -0.3230807178   -1.3631809321    0.0218903921
O    -0.5285674281   -2.6179138751    0.0427539475
H    -2.0240000636    1.6282214355   -0.0449479999
H    -2.4649826295   -0.7483054413   -0.0058513094


