%chk=068.chk
%nproc=8
%mem=30GB
#P UB3LYP/6-311++G(d,p) nosym opt freq

Oxidized

0 1
C                  0.8265220000      1.0825170000     -1.5374830000
C                 -0.4139850000      0.3154830000     -1.7963950000
C                 -0.6690290000     -0.8282180000     -1.1548040000
C                  0.2733980000     -1.3766510000     -0.1559650000
C                  1.4915010000     -0.5604340000      0.2145890000
C                  1.7098420000      0.6019160000     -0.4294680000
O                  1.1179390000      2.0416410000     -2.2257790000
O                  0.0746090000     -2.4623380000      0.3547750000
S                  3.0998750000      1.7039730000      0.0327050000
C                  4.2274980000      1.6432820000     -1.3626740000
C                  5.0891850000      0.5524210000     -1.4780910000
C                  4.2337540000      2.6967450000     -2.2734460000
C                  5.1368060000      2.6530180000     -3.3323950000
C                  5.9786890000      0.5205660000     -2.5487780000
C                  6.0031350000      1.5683150000     -3.4698530000
O                  3.7479550000      1.0391040000      1.1698370000
O                  2.5655830000      3.0560330000      0.1794570000
H                 -1.0676470000      0.7257940000     -2.5578990000
H                 -1.5507540000     -1.4295690000     -1.3455260000
H                  5.0648100000     -0.2465540000     -0.7469690000
H                  3.5447750000      3.5211880000     -2.1478370000
H                  5.1622420000      3.4652840000     -4.0491840000
H                  6.6565500000     -0.3177850000     -2.6574530000
H                  6.7018220000      1.5394630000     -4.2983760000
C                  2.4469560000     -1.2801110000      1.1909910000
O                  3.2956900000     -1.9553640000      0.6580930000
C                  2.2197180000     -1.2540160000      2.7121150000
C                  1.2673890000     -0.1244920000      3.1363790000
C                  1.6240970000     -2.6283520000      3.1155280000
C                  3.5882770000     -1.0956920000      3.4089320000
H                  0.2781350000     -0.2246620000      2.6787460000
H                  1.6731760000      0.8574260000      2.8863490000
H                  1.1227910000     -0.1600200000      4.2193700000
H                  0.6397900000     -2.7963280000      2.6794280000
H                  1.5342620000     -2.6618640000      4.2048310000
H                  2.2811270000     -3.4404320000      2.7979710000
H                  4.0306250000     -0.1237840000      3.1954250000
H                  4.2796830000     -1.8733310000      3.0801310000
H                  3.4504200000     -1.1921620000      4.4895120000


