%chk=279.chk
%nproc=8
%mem=30GB
#P UB3LYP/6-311++G(d,p) nosym opt freq SCRF=(PCM,Solvent=n,n-DiMethylFormamide)

Oxidized

0 1
O                 -1.2806830000      2.4648820000      0.3307700000
C                 -1.2463240000      1.2483330000      0.2155320000
C                 -2.4739570000      0.4507970000      0.1937730000
C                 -2.4353800000     -0.8914040000      0.0666220000
O                 -3.5281840000     -1.6602370000      0.0415890000
C                 -1.1454820000     -1.6452190000     -0.0592430000
O                 -1.2099240000     -2.8624210000     -0.1700570000
C                  0.1110940000     -0.8742880000     -0.0410660000
C                  1.3384310000     -1.5336370000     -0.1553320000
C                  2.5203910000     -0.8006000000     -0.1374940000
C                  2.4782970000      0.5888670000     -0.0058180000
C                  1.2569050000      1.2498880000      0.1083480000
C                  0.0668230000      0.5254550000      0.0916770000
H                 -3.4130440000      0.9828830000      0.2838150000
H                  1.3467280000     -2.6120170000     -0.2564760000
H                  3.4734190000     -1.3090160000     -0.2258760000
H                  3.4008530000      1.1580450000      0.0078140000
H                  1.2054680000      2.3268270000      0.2111800000
H                 -3.2159580000     -2.5800110000     -0.0579300000


