%chk=099-an.chk
%nproc=8
%mem=30GB
#P UB3LYP/6-311++G(d,p) nosym opt freq

Reduced

-2 1
 C   -0.1273298   -0.8720918    1.4848800
  C   -0.0654081   -0.8090800   -0.0137684
  C   -0.5665065   -1.8537818   -0.7157204
  C   -1.2057517   -3.0015840   -0.0336553
  C   -1.2937113   -3.0249706    1.4394881
  C   -0.7812617   -2.0183310    2.1572143
  O    0.4128227   -0.0180362    2.1710859
  O   -1.6623662   -3.9253339   -0.6878141
  C    0.5962231    0.3356698   -0.7342338
  H   -1.7656695   -3.8635086    1.9430341
  H   -0.5301773   -1.8631747   -1.8013109
  H   -0.8362481   -2.0494781    3.2414629
  C    0.4467126    1.7205334   -0.3790620
  C    1.2012664    2.6826769   -1.0897341
  C    2.0510563    2.3169509   -2.1298293
  C    2.1696442    0.9834902   -2.4945503
  C    1.4537169    0.0060006   -1.8090569
  N   -0.4809488    2.1888587    0.6140674
  O   -0.4792754    3.3384791    0.9392215
  O   -1.3875247    1.5013889    0.9725794
  H    1.1169628    3.7364609   -0.8565155
  H    2.6110694    3.0744380   -2.6632138
  H    2.8286104    0.7024808   -3.3061476
  H    1.6009403   -1.0241072   -2.1081935







