%chk=016-an.chk
%nproc=8
%mem=30GB
#P UB3LYP/genecp nosym opt freq 

Reduced

-2 1
C                 -1.7575380000      1.4983680000      1.0612270000
C                 -2.9329590000      0.7106570000      0.8127630000
C                 -2.9792330000     -0.5362050000      0.1943440000
C                 -1.7729540000     -1.1887910000     -0.2814440000
C                 -0.5927140000     -0.4165300000     -0.0408220000
C                 -0.5753680000      0.8441640000      0.5878190000
O                 -1.7682920000     -2.3461820000     -0.8606810000
O                 -1.7973060000      2.6455140000      1.6398790000
I                  1.2101620000      1.9868330000      0.9365820000
I                  1.1819980000     -1.3979470000     -0.7493400000
H                 -3.8448400000      1.1838260000      1.1622070000
C                 -4.3213830000     -1.2743460000     -0.0094930000
C                 -5.5349010000     -0.4927740000      0.5311790000
C                 -4.2783750000     -2.6389180000      0.7215980000
C                 -4.5547750000     -1.5163600000     -1.5212320000
H                 -5.6472330000      0.4762760000      0.0351020000
H                 -5.4534960000     -0.3104180000      1.6072390000
H                 -6.4497810000     -1.0742150000      0.3529260000
H                 -4.1845540000     -2.4839420000      1.8027850000
H                 -3.4145900000     -3.2046830000      0.3664240000
H                 -5.2004670000     -3.2118370000      0.5354360000
H                 -4.6585410000     -0.5584340000     -2.0440930000
H                 -5.4743790000     -2.0995090000     -1.6868750000
H                 -3.6977460000     -2.0549270000     -1.9308520000

H C O 0
6-311++G(d,p)
****
I 0
def2TZVP
****

I 0
def2TZVP








