%chk=056-rad.chk
%nproc=8
%mem=30GB
#P UB3LYP/6-311++G(d,p) nosym opt freq SCRF=(PCM,Solvent=n,n-DiMethylFormamide)

Oxidized

-1 2
 C                 -0.53901700    1.10940200   -0.16920700
 C                 -1.47114500    0.10643800   -0.65829400
 C                 -1.21824100   -1.23122500   -0.61215800
 C                  0.02001300   -1.75007100   -0.07148500
 C                  0.97767400   -0.76459600    0.35739500
 C                  0.76053100    0.60132700    0.28897500
 O                 -0.88269900    2.31786100   -0.10819000
 O                  0.25408000   -2.99590400    0.01082700
 C                  1.85852000    1.54404600    0.63925300
 C                  2.81964600    1.16788000    1.75114200
 O                  1.99209900    2.61048000    0.07123700
 H                 -2.41233200    0.48122700   -1.04888200
 H                 -1.94595700   -1.94973700   -0.97748100
 H                  1.92458300   -1.15619000    0.71051600
 H                  3.17674900    0.14036100    1.67847100
 H                  2.29957500    1.25825300    2.71103300
 H                  3.66858200    1.85101800    1.74145600




























