%chk=139-an.chk
%nproc=8
%mem=30GB
#P UB3LYP/6-311++G(d,p) nosym opt freq

Reduced

-2 1
C    -3.1558848027    3.0478825023   -0.1662764596
O    -1.8539471802    2.5119778990   -0.1167680497
C    -1.6865121512    1.1294684670   -0.0752189873
C    -2.7630675102    0.2891368415   -0.0817818381
C    -2.5784419933   -1.0956991408   -0.0397083784
C    -1.3021966064   -1.5967712705    0.0081725993
O    -1.0901602493   -2.9568896466    0.0503258763
C    -2.1166753635   -3.9142578774    0.0482427470
C    -0.2224748419   -0.7474821141    0.0145818472
C     1.1550059378   -1.2365008755    0.0648713944
O     1.3958607414   -2.4708506322    0.1044317743
C     2.3011969169   -0.3285061137    0.0715011577
C     3.5863938499   -0.8132854595    0.1191819336
C     4.6598330328    0.0491823092    0.1250640722
C     4.4907696622    1.4295616169    0.0835305911
C     3.1828612640    1.8865729254    0.0359801218
C     2.1062427080    1.0273768024    0.0299250305
C     0.7590632100    1.5397319546   -0.0201720903
O     0.5981291222    2.7878114391   -0.0579444763
C    -0.3978562617    0.6433745391   -0.0274036202
H    -3.1080670166    4.1517948955    0.0019213887
H    -3.7957455195    2.6172553218    0.6312268053
H    -3.6204745591    2.8314245144   -1.1586541290
H    -3.7883523375    0.6790866434   -0.1199083675
H    -3.4704009338   -1.7066088762   -0.0474310551
H    -2.4493484261   -4.1798670161    1.0772702135
H    -1.6867317622   -4.8419990129   -0.4277481710
H    -3.0000964760   -3.6311718559   -0.5338331484
H     3.7963166265   -1.8790818552    0.1533908684
H     5.6902561846   -0.2990871165    0.1622113964
H     5.3352457848    2.1175615586    0.0879074844
H     3.0292589502    2.9588586331    0.0031114690


