%chk=336-rad.chk
%nproc=8
%mem=30GB
#P UB3LYP/6-311++G(d,p) nosym  opt freq

Radical

-1 2
O                  0.1204230000      0.4170960000      2.6809460000
C                  0.0803050000      0.2188770000      1.4060090000
C                 -1.1874960000      0.1125500000      0.7089760000
C                 -2.4304080000      0.2207670000      1.3927480000
C                 -3.6257810000      0.1126230000      0.6855070000
C                 -3.6259690000     -0.1026320000     -0.6985200000
C                 -2.4172400000     -0.2111770000     -1.3846300000
C                 -1.2259420000     -0.1028400000     -0.6768780000
O                 -0.0680530000     -0.2214740000     -1.4293510000
C                  1.1678270000     -0.1259690000     -0.8021370000
C                  2.2822350000     -0.2529140000     -1.6085640000
C                  3.5716870000     -0.1671150000     -1.0423920000
C                  3.6976010000      0.0460010000      0.3324540000
C                  2.5722280000      0.1731660000      1.1397170000
C                  1.2615600000      0.0911260000      0.5969060000
O                 -2.4361270000      0.4290600000      2.7331570000
H                 -4.5593970000      0.1986950000      1.2301400000
H                 -4.5538250000     -0.1873350000     -1.2518920000
O                 -2.4062810000     -0.4239240000     -2.7523840000
H                  2.1437300000     -0.4177140000     -2.6716470000
H                  4.4477660000     -0.2664720000     -1.6735840000
H                  4.6859500000      0.1135730000      0.7784180000
H                  2.6552080000      0.3386180000      2.2067780000
H                 -1.4585370000      0.4667090000      2.9884650000
H                 -1.4785900000     -0.4664540000     -3.0164170000


