%chk=102-an.chk
%nproc=8
%mem=30GB
#P UB3LYP/6-311++G(d,p) nosym opt freq SCRF=(PCM,Solvent=n,n-DiMethylFormamide)

Reduced

-2 1
C                  1.9166070000      3.5811730000      3.7581920000
C                  2.9718170000      3.5380780000      2.7726450000
C                  3.4456590000      2.3758600000      2.1924710000
C                  2.9284560000      1.0640550000      2.4984400000
C                  1.3874820000      2.2669320000      4.0545220000
C                  1.8686180000      1.0867190000      3.4569930000
O                  1.5054640000      4.6722120000      4.2838000000
O                  3.3821900000     -0.0129170000      1.9499660000
S                  0.1818800000      2.0882120000      5.3682380000
C                 -1.3729200000      2.7002970000      4.7461950000
C                 -2.5190980000      2.5229000000      5.5400170000
C                 -1.5039450000      3.3590910000      3.5153500000
C                 -2.7522550000      3.8140660000      3.0964440000
C                 -3.7627520000      2.9798670000      5.1133380000
C                 -3.8917660000      3.6299020000      3.8834780000
H                  3.4063550000      4.5010750000      2.5059940000
H                  4.2534120000      2.4219330000      1.4615250000
H                  1.4210050000      0.1344130000      3.7275650000
H                 -2.4291460000      2.0146390000      6.4969220000
H                 -0.6179430000      3.5158320000      2.9126540000
H                 -2.8345380000      4.3276940000      2.1414090000
H                 -4.6403980000      2.8209100000      5.7386500000
H                 -4.8638320000      3.9840700000      3.5486870000


