%chk=090.chk
%nproc=8
%mem=30GB
#P UB3LYP/6-311++G(d,p) nosym opt freq

Oxidized

0 1
C                 -1.85986300    0.36401300   -0.19265600
 C                 -2.82754700    1.03940900   -0.84829200
 C                 -2.59324000    2.12174300   -1.86293700
 C                 -4.27295200    0.75165000   -0.57372100
 O                 -5.13954700    1.41723100   -1.12587900
 C                 -4.65084100   -0.31945800    0.37810700
 C                 -3.68635800   -0.99238800    1.06062300
 O                 -3.81988000   -1.93811100    1.99463700
 C                 -5.06726800   -2.59541400    2.26207600
 C                 -2.23293100   -0.68005100    0.81236300
 O                 -1.37691300   -1.29231200    1.42175400
 O                 -5.97480800   -0.49139100    0.66196000
 C                 -6.84276000   -0.88974600   -0.41431300
 H                 -3.10985700    3.03685400   -1.56281800
 H                 -3.01996400    1.83862300   -2.82970600
 H                 -1.53624100    2.34183000   -1.99481000
 H                 -5.46722800   -3.05113200    1.35340200
 H                 -4.81689200   -3.37240000    2.98251900
 H                 -5.79770900   -1.90599200    2.68140300
 H                 -6.88347300   -0.12482900   -1.18787900
 H                 -7.82628000   -1.01866900    0.03567500
 H                 -6.50686700   -1.84313200   -0.83763000
 C                 -0.37897000    0.59208200   -0.36066400
 C                  0.18442900    1.63147900    0.63110900
 C                  1.69655300    1.82978200    0.48349000
 C                  2.27178900    2.86220300    1.45966500
 C                  3.78435200    3.06546600    1.31547800
 C                  4.36086400    4.09570500    2.29321200
 C                  5.87355200    4.29909600    2.15090900
 C                  6.45019300    5.32878700    3.12887600
 C                  7.96297400    5.53288800    2.98824500
 C                  8.52945300    6.56315200    3.96966100
 H                 -0.16242900    0.90871300   -1.38351200
 H                  0.13640500   -0.35711700   -0.19869400
 H                 -0.04376000    1.30833800    1.65215800
 H                 -0.32899500    2.58919400    0.48394500
 H                  1.92484700    2.13769300   -0.54545500
 H                  2.20179100    0.86750600    0.63347000
 H                  2.04468700    2.55199700    2.48755000
 H                  1.76214400    3.82331300    1.31263700
 H                  4.01149100    3.37602500    0.28728200
 H                  4.29348500    2.10404700    1.46141900
 H                  4.13306500    3.78502400    3.32108100
 H                  3.85150900    5.05719100    2.14741200
 H                  6.10157900    4.60979700    1.12293800
 H                  6.38275900    3.33756100    2.29677300
 H                  6.22263100    5.01874700    4.15723900
 H                  5.94180700    6.29104300    2.98349200
 H                  8.19084600    5.84346700    1.96119700
 H                  8.47133600    4.57194200    3.13420600
 H                  8.06576600    7.54415900    3.82482000
 H                  9.60896600    6.68481400    3.84362500
 H                  8.34815200    6.26297000    5.00665000


