%chk=244-rad.chk
%nproc=8
%mem=30GB
#P UB3LYP/6-311++G(d,p) nosym  opt freq

Radical

-1 2
C                  5.7393620000     -5.3252680000      1.2343230000
C                  6.6787040000     -5.1679550000      0.2201150000
C                  6.5826210000     -4.1414090000     -0.7324770000
C                  4.6403390000     -4.4140160000      1.3110000000
C                  4.5520550000     -3.3732320000      0.3369600000
C                  5.5271810000     -3.2555710000     -0.6695320000
C                  3.6061560000     -4.5241120000      2.3633470000
C                  2.5376830000     -3.5429170000      2.3423890000
C                  2.4822390000     -2.5504700000      1.3871540000
C                  3.4485720000     -2.3902860000      0.3450470000
O                  3.6423330000     -5.4269040000      3.2484250000
O                  3.3763570000     -1.4725240000     -0.5177030000
C                  5.9453400000     -6.4682350000      2.2050240000
H                  7.5108510000     -5.8653450000      0.1694700000
C                  1.4730770000     -3.6377710000      3.4096350000
H                  1.6680230000     -1.8285270000      1.3966400000
H                  5.4095490000     -2.4470600000     -1.3816130000
H                  7.3359680000     -4.0506280000     -1.5099690000
H                  6.8540310000     -7.0182780000      1.9356520000
H                  5.0967530000     -7.1547170000      2.2066770000
H                  6.0312360000     -6.1139490000      3.2338430000
H                  1.6774350000     -4.4875860000      4.0616180000
H                  0.4773690000     -3.7647490000      2.9676040000
H                  1.4404080000     -2.7274820000      4.0207740000





