%chk=223.chk
%nproc=8
%mem=30GB
#P UB3LYP/6-311++G(d,p) nosym opt freq

Oxidized

-1 1
C          2.77905        0.52628        0.23546
C          2.73946       -0.68877        0.92413
C          1.53264       -1.37606        1.06598
C         -0.93971       -1.58395        0.66898
O         -0.97155       -2.64785        1.27179
C         -2.18663       -1.02359        0.08815
C         -3.41033       -1.70562        0.22395
C         -4.58025       -1.17519       -0.32354
C         -4.54389        0.03792       -1.01083
C         -3.33743        0.72626       -1.15387
C         -2.14980        0.20448       -0.60766
C         -0.86421        0.93326       -0.75737
O         -0.83246        1.99713       -1.36024
C          0.38282        0.37276       -0.17630
C          1.60606        1.05510       -0.31210
H          3.64271       -1.10466        1.35170
H          1.52836       -2.31582        1.60392
H         -3.46317       -2.64881        0.75322
H         -5.51716       -1.70614       -0.21452
H         -5.45265        0.44624       -1.43394
H         -3.33384        1.66619       -1.69150
H          1.65186        1.99824       -0.84264
C          0.34578       -0.85480        0.51936
S          4.32702        1.41210        0.05210
O          5.58115        0.62418        0.45977
O          4.64787        1.86228       -1.38082
O          4.43838        2.70656        0.87083







