%chk=007-an.chk
%nproc=8
%mem=30GB
#P UB3LYP/genecp nosym opt freq 

Reduced

-2 1
C         -1.31544        1.94163        0.67301
C         -2.65777        1.38627        0.31368
C         -2.70655        0.16318       -0.26423
C         -1.47446       -0.60195       -0.55132
C         -0.14084       -0.03666       -0.20706
C         -0.07302        1.18054        0.37893
O         -1.56736       -1.70097       -1.07642
H         -3.64533       -0.29938       -0.54346
O         -1.22957        3.02242        1.23536
I          1.79178        2.07147        0.91685
C          1.11502       -0.82016       -0.50878
C         -3.91903        2.20887        0.62694
C         -3.93098        3.51339       -0.18763
C         -5.24578        1.46629        0.38299
H          0.89209       -1.79609       -0.98673
H          1.66936       -1.02148        0.43203
H          1.76228       -0.24253       -1.20186
H         -3.89297        2.45963        1.71015
H         -4.82173        4.12268        0.07677
H         -3.96336        3.28847       -1.27549
H         -3.03702        4.13517        0.01482
H         -6.10251        2.10553        0.68649
H         -5.28525        0.53890        0.99340
H         -5.37076        1.21095       -0.69138

H C O 0
6-311++G(d,p)
****
I 0
def2TZVP
****

I 0
def2TZVP












