%chk=221-an.chk
%nproc=8
%mem=30GB
#P UB3LYP/6-311++G(d,p) nosym opt freq SCRF=(PCM,Solvent=n,n-DiMethylFormamide)

Reduced

-2 1
C                  4.9835460000     -2.5049780000      0.2006080000
C                  5.6807970000     -1.6654050000     -0.6486890000
C                  4.9619140000     -0.7990650000     -1.5116530000
C                  3.5719880000     -2.5289260000      0.2383430000
C                  2.8397560000     -1.6503950000     -0.6355910000
C                  3.5817190000     -0.8012100000     -1.4958280000
C                  2.9014290000     -3.4430900000      1.1627750000
C                  1.4417800000     -3.3878330000      1.1226390000
C                  0.7238390000     -2.4890570000      0.2268880000
C                  1.3810850000     -1.5949030000     -0.6754630000
C                  0.7118630000     -4.2236340000      1.9722870000
C                 -0.7029910000     -2.5278930000      0.2752120000
C                 -1.3981950000     -3.3558850000      1.1145350000
O                  3.5517800000     -4.2135330000      1.9303120000
O                  0.7638610000     -0.7964380000     -1.4706990000
H                  5.4988040000     -3.1818340000      0.8750460000
H                 -2.4817260000     -3.3522140000      1.1215060000
H                  3.0024890000     -0.1505780000     -2.1432220000
H                  1.2708940000     -4.8810080000      2.6284200000
H                 -1.2232910000     -1.8551070000     -0.3992720000
C                 -0.6900940000     -4.2430040000      2.0075890000
H                  5.4996510000     -0.1337200000     -2.1851840000
C                 -1.3587560000     -5.1443860000      2.9160920000
O                 -0.8671160000     -5.9241640000      3.7306060000
O                 -2.7569010000     -5.0847370000      2.7977330000
C                 -3.4766310000     -5.8790230000      3.7241440000
H                 -4.5317770000     -5.7764210000      3.4577420000
H                 -3.3264140000     -5.5374340000      4.7568160000
H                 -3.1801480000     -6.9305000000      3.6723810000
H                  6.7688060000     -1.6685680000     -0.6563120000


