%chk=067-rad.chk
%nproc=8
%mem=30GB
#P UB3LYP/6-311++G(d,p) nosym  opt freq

Radical

-1 2
C         -0.76574       -1.07728        2.49386
C         -0.73690       -1.85945        1.24354
C         -0.08991       -1.42161        0.16495
C          0.61834       -0.13332        0.18356
C          0.54753        0.68671        1.41614
C         -0.15452        0.26844        2.48481
O         -1.25048       -1.59788        3.48853
O          1.21736        0.24321       -0.81550
S         -0.46879        1.29682        3.84699
C          0.66632        0.73313        5.09706
C          0.28971       -0.30652        5.95368
C          1.89291        1.38020        5.26919
C          2.76512        0.95059        6.27004
C          1.16672       -0.73084        6.95228
C          2.40469       -0.10647        7.10617
O         -0.13060        2.67464        3.53291
O         -1.81191        1.04996        4.34203
H         -1.24965       -2.81531        1.25801
H         -0.04696       -1.99187       -0.75617
H         -0.68204       -0.78804        5.85795
H          2.18078        2.22025        4.64045
H          3.72356        1.44733        6.40267
H          0.88041       -1.54263        7.61683
H          3.08491       -0.43515        7.88837
C          1.34267        1.93984        1.42470
C          0.94792        3.04477        0.48354
O          2.32908        2.00652        2.15583
H         -0.06003        2.88109        0.09210
H          1.65577        3.08476       -0.34793
H          0.95232        3.99503        1.02423













