%chk=195.chk
%nproc=8
%mem=30GB
#P UB3LYP/6-311++G(d,p) nosym opt freq

Oxidized

0 1
C                  4.8262590000     -3.0160630000      0.2903130000
C                  5.7305890000     -2.2041500000     -0.3835340000
C                  5.2951740000     -1.0278750000     -1.0008500000
C                  3.4757010000     -2.6581040000      0.3526540000
C                  3.0375560000     -1.4742630000     -0.2686720000
C                  3.9552900000     -0.6637220000     -0.9441640000
C                  2.5239970000     -3.5336690000      1.0748770000
C                  1.1125750000     -3.1426290000      1.1222010000
C                  0.6679590000     -1.9435410000      0.4936480000
C                  1.6119680000     -1.0739500000     -0.2176030000
C                  0.2001440000     -3.9701780000      1.8023030000
C                 -1.1631560000     -3.5799010000      1.8359420000
C                 -0.6883450000     -1.5828580000      0.5554770000
C                 -1.5959730000     -2.4212820000      1.2378950000
O                  2.9220260000     -4.5737130000      1.6240590000
O                  1.2315850000     -0.0285130000     -0.7636850000
O                  0.5674600000     -5.0902070000      2.4209250000
H                  5.1437250000     -3.9308550000      0.7744520000
H                  6.7764400000     -2.4848150000     -0.4302760000
H                  6.0038130000     -0.3975650000     -1.5255280000
H                  1.5451950000     -5.1922950000      2.2715960000
O                 -1.1821600000     -0.4738590000     -0.0023720000
H                 -2.6401830000     -2.1390840000      1.2852420000
H                 -0.4274530000     -0.0056450000     -0.4361210000
H                  3.5978600000      0.2429500000     -1.4156950000
S                 -2.4068440000     -4.6287950000      2.6186220000
O                 -3.6454690000     -3.8729560000      2.6354320000
O                 -2.3589350000     -5.9651530000      2.0473420000
O                 -1.8395570000     -4.6680230000      4.1433500000
C                 -1.5208990000     -5.9520070000      4.7431410000
H                 -0.8477100000     -6.5146060000      4.0995670000
H                 -2.4350790000     -6.5137820000      4.9350620000
H                 -1.0318820000     -5.6932810000      5.6800500000


