%chk=223-an-PCM.chk
%nproc=8
%mem=30GB
#P UB3LYP/6-311++G(d,p) SCRF=(PCM,Solvent=n,n-DiMethylFormamide)

Reduced 

-3 1
C                  2.7527440000      0.5738170000      0.2065040000
C                  2.6973260000     -0.6080330000      0.9892110000
C                  1.4977010000     -1.2623480000      1.1575380000
C                 -0.9387080000     -1.5428970000      0.7901380000
O                 -0.9739620000     -2.6047590000      1.5001050000
C                 -2.1185450000     -1.0048190000      0.1355250000
C                 -3.3601380000     -1.6789790000      0.2621810000
C                 -4.5196710000     -1.2020020000     -0.3170090000
C                 -4.4814130000      0.0001680000     -1.0714560000
C                 -3.2811350000      0.6675910000     -1.2294230000
C                 -2.0728670000      0.1970150000     -0.6601830000
C                 -0.8384360000      0.9439830000     -0.8812040000
O                 -0.8078000000      2.0012650000     -1.5841860000
C                  0.3512640000      0.3973240000     -0.2286450000
C                  1.6025680000      1.0561270000     -0.3836200000
H                  3.6068930000     -0.9839890000      1.4450990000
H                  1.4323350000     -2.1682950000      1.7517000000
H                 -3.3600880000     -2.5934860000      0.8466750000
H                 -5.4621120000     -1.7368090000     -0.1977740000
H                 -5.3951170000      0.3841720000     -1.5240550000
H                 -3.2218880000      1.5858870000     -1.8048930000
H                  1.6339520000      1.9562110000     -0.9846440000
C                  0.2937640000     -0.7977040000      0.5678280000
S                  4.3679930000      1.4067550000      0.0324660000
O                  5.2905590000      0.3747370000     -0.5415660000
O                  4.1553670000      2.5726290000     -0.8726130000
O                  4.7694980000      1.8041590000      1.4203110000





