%chk=298-an.chk
%nproc=8
%mem=30GB
#P UB3LYP/6-311++G(d,p) nosym opt freq SCF=YQC Int=Acc2E=11 

Reduced

-2 1
 C                 -7.17072000    4.08251800    0.78599900
 C                 -8.15519800    3.39224700    0.10400800
 C                 -7.82217600    2.62773400   -1.03380800
 C                 -5.82437200    4.03628600    0.36056700
 C                 -5.48564000    3.26328300   -0.78976700
 C                 -6.50640900    2.57096700   -1.46466900
 C                 -4.79654500    4.75949800    1.07468000
 C                 -3.45215400    4.64741500    0.56215300
 C                 -3.08929400    3.91521000   -0.55046700
 C                 -4.09512800    3.17662400   -1.28210200
 O                 -4.98779000    5.48209100    2.11131200
 O                 -3.80944200    2.48983400   -2.29966200
 O                 -2.53516400    5.35489100    1.28688900
 C                 -1.65937600    3.85813500   -1.02398500
 C                 -0.87029600    2.65841200   -0.46301400
 C                  0.57394900    2.60064500   -0.97435400
 C                  1.38460500    1.42037700   -0.42469600
 C                  2.82880600    1.37166100   -0.93915000
 C                  3.64899300    0.19666500   -0.39232300
 C                  5.09101700    0.15895100   -0.91315800
 C                  5.91926500   -1.01183500   -0.36921800
 C                  7.35966600   -1.03180000   -0.89993300
 C                  8.18016700   -2.19981800   -0.35059100
 S                  9.89088900   -2.16415200   -1.02315900
 C                 10.59247200   -3.64583700   -0.18806700
 C                 12.05507400   -3.85036500   -0.58573000
 C                 12.68396800   -5.07767100    0.08933100
 C                 14.15153300   -5.29508100   -0.29992700
 C                 14.78973500   -6.51830200    0.36963800
 C                 16.25726400   -6.73561000   -0.01889300
 C                 16.89554000   -7.95872100    0.65119800
 C                 18.36295200   -8.17701100    0.26394200
 C                 18.99989900   -9.40058500    0.93517700
 C                 20.46530000   -9.61799000    0.54840500
 H                 -7.40192000    4.67659800    1.66322100
 H                 -9.18615600    3.43737000    0.44422600
 H                 -8.59573200    2.08480200   -1.56921800
 H                 -6.22092700    1.99058800   -2.33499500
 H                 -3.10084600    5.75803900    1.98290900
 H                 -1.14478300    4.78353400   -0.74432500
 H                 -1.66616700    3.78496100   -2.11633900
 H                 -1.39577500    1.73758800   -0.73809700
 H                 -0.86943100    2.71130900    0.63234200
 H                  1.08624800    3.53817100   -0.71727800
 H                  0.56416200    2.55041400   -2.07145100
 H                  0.87628600    0.48229800   -0.68328400
 H                  1.39324800    1.46789500    0.67233500
 H                  3.33399600    2.31263300   -0.68320100
 H                  2.81847300    1.32347800   -2.03618200
 H                  3.14685200   -0.74539500   -0.64879500
 H                  3.66175300    0.24390400    0.70456400
 H                  5.59110400    1.10245900   -0.65798100
 H                  5.07702800    0.11107800   -2.00989700
 H                  5.42390700   -1.95697800   -0.62631500
 H                  5.93669600   -0.96493600    0.72729800
 H                  7.85580800   -0.08924800   -0.64131500
 H                  7.34353200   -1.08510800   -1.99462000
 H                  7.71855500   -3.15372500   -0.62386500
 H                  8.23478900   -2.14869900    0.74125400
 H                  9.99460900   -4.51842800   -0.46937200
 H                 10.50694400   -3.50689500    0.89424600
 H                 12.63038600   -2.95524600   -0.32266900
 H                 12.12281500   -3.95866800   -1.67435200
 H                 12.10355600   -5.97259800   -0.16992100
 H                 12.60991200   -4.97078800    1.17931800
 H                 14.73037500   -4.39883800   -0.04108700
 H                 14.22419100   -5.40131500   -1.39022000
 H                 14.21063600   -7.41474100    0.11156700
 H                 14.71606400   -6.41272900    1.46004100
 H                 16.83654600   -5.83914000    0.23904500
 H                 16.33126700   -6.84149800   -1.10933700
 H                 16.31615500   -8.85505400    0.39329400
 H                 16.82106100   -7.85280100    1.74153700
 H                 18.94408500   -7.28199800    0.52173200
 H                 18.43944600   -8.28403300   -0.82597400
 H                 18.41910800  -10.29553800    0.67806700
 H                 18.92305300   -9.29438500    2.02475200
 H                 20.57528700   -9.76863800   -0.53165600
 H                 20.88771500  -10.49833500    1.04490400
 H                 21.08412700   -8.75764600    0.82801700



















































