%chk=164-rad-new-opt2.chk
%nproc=8
%mem=30GB
#P UB3LYP/6-311++G(d,p) nosym  opt freq

Radical

-4 2
 N                  3.01005300   -1.63473300   -2.88404200
 C                  2.36559800   -0.43568600   -2.60011300
 C                  1.46890100   -0.20290800   -1.53791800
 C                  2.72286100    0.66110900   -3.41481100
 C                  0.98068700    1.08805100   -1.28580700
 C                  2.20995000    1.92413200   -3.18132200
 C                  1.33427100    2.16548600   -2.12547600
 S                  0.77210500    3.88444000   -1.86904600
 O                 -0.64727900    3.74371900   -1.39903600
 O                  1.66835800    4.46493900   -0.83680000
 O                  0.89065200    4.53853700   -3.19879300
 N                  0.07893200    1.36977600   -0.22075300
 C                  0.07225100    0.92599400    1.04597900
 N                  0.94548200   -0.03488700    1.44251200
 C                  0.83310400   -0.35331300    2.70693400
 N                  0.01504600    0.11597100    3.62164100
 C                 -0.81819000    1.08039300    3.12578500
 N                 -0.83773500    1.50633100    1.87491600
 Cl                 1.96759000   -1.59653500    3.28359200
 N                 -1.66161100    1.58367000    4.08246000
 C                 -2.59873600    2.63580900    4.08573700
 C                 -2.88200000    3.43833600    2.97557600
 C                 -3.26309000    2.87840300    5.30390600
 C                 -3.82573300    4.45990500    3.10486800
 C                 -4.19441500    3.90086200    5.41254100
 C                 -4.48557200    4.70172700    4.30570500
 S                 -5.01206100    4.23743200    7.01862400
 O                 -4.67793800    3.06599300    7.87478200
 O                 -4.41221800    5.51601600    7.49351300
 O                 -6.46059900    4.35647000    6.69205300
 H                  3.95672600   -1.55181000   -3.28264300
 H                  1.18866900   -1.00896400   -0.87673100
 H                  3.40067700    0.49027900   -4.24457500
 H                  2.46705800    2.75387700   -3.82870100
 H                 -0.49566000    2.20683800   -0.39263600
 H                 -1.51862600    1.13061800    4.97315700
 H                 -2.37229800    3.26321900    2.03991100
 H                 -3.06469700    2.26605200    6.17765000
 H                 -4.04010100    5.07624800    2.23731800
 H                 -5.22220600    5.49087000    4.39449400
 C                  2.64958100   -2.97775000   -2.78181000
 C                  3.66244100   -3.97241500   -3.01421900
 C                  1.32880300   -3.38268800   -2.55533600
 C                  0.96530600   -4.72133000   -2.52958700
 C                  3.30614100   -5.37554000   -2.90187100
 C                  1.93633000   -5.74506600   -2.65846500
 C                  4.31633100   -6.41866100   -3.02805600
 C                  5.67916300   -6.00125200   -3.33986300
 C                  6.01041600   -4.63089800   -3.52737500
 C                  5.01476300   -3.58184700   -3.39194400
 C                  6.69350800   -6.97440400   -3.47910400
 C                  7.99285500   -6.62359900   -3.79350800
 C                  8.32292400   -5.25826700   -3.98303200
 C                  7.34580900   -4.29168800   -3.85262300
 O                  4.08012500   -7.66415400   -2.88653200
 O                  5.36757800   -2.37169200   -3.61998500
 N                  1.56522400   -7.05473000   -2.57838800
 H                  0.54495400   -2.64584500   -2.43659300
 H                  6.40463700   -8.00898500   -3.33031200
 H                  8.75855700   -7.38979800   -3.89458200
 H                  9.34385400   -4.97310600   -4.22789300
 H                  7.56630600   -3.23922100   -3.99045900
 H                  2.33425200   -7.71815500   -2.56597100
 H                  0.65220700   -7.23829400   -2.17338700
 S                 -0.82342700   -5.12305000   -2.45175000
 O                 -0.92119100   -6.30767900   -1.53264900
 O                 -1.21212100   -5.46433200   -3.84842000
 O                 -1.48425300   -3.90697900   -1.92291100










































