%chk=164-rad-new-pro-opt2.chk
%nproc=8
%mem=30GB
#P UB3LYP/6-311++G(d,p) nosym  opt freq

Radical

-3 2
 N                  2.46746200   -2.33280900   -1.56968400
 C                  1.57182100   -1.24091400   -1.64726800
 C                  1.23051400   -0.61535700   -0.43973700
 C                  1.09608700   -0.71725700   -2.85337500
 C                  0.44187900    0.54194000   -0.42015800
 C                  0.30375000    0.42620600   -2.83116000
 C                 -0.02216000    1.07436300   -1.64608100
 S                 -0.93812900    2.65772100   -1.77298600
 O                 -1.82095800    2.65762900   -0.56007100
 O                  0.10777300    3.70670200   -1.73083800
 O                 -1.67806100    2.57946900   -3.05220100
 N                  0.02730400    1.18071600    0.76904900
 C                  0.46074900    1.07467800    2.03985200
 N                  1.49713600    0.25512800    2.35065900
 C                  1.80307000    0.26047400    3.62849000
 N                  1.26041800    0.92793900    4.61373800
 C                  0.22578600    1.72800200    4.19916300
 N                 -0.20148300    1.83127600    2.94906000
 Cl                 3.15479500   -0.80077200    4.08472700
 N                 -0.34069500    2.42490400    5.22196000
 C                 -1.40542100    3.35231400    5.29018700
 C                 -2.12856900    3.80523700    4.18340700
 C                 -1.72052900    3.83124300    6.57403300
 C                 -3.15423600    4.73269400    4.38569900
 C                 -2.74155100    4.75143700    6.75422600
 C                 -3.46917600    5.21010100    5.65356600
 S                 -3.15221900    5.34208300    8.44043900
 O                 -2.06930400    4.79590200    9.30308200
 O                 -3.15148200    6.82533200    8.32812300
 O                 -4.49579300    4.76879400    8.72212900
 H                  3.21221300   -2.26833100   -0.86800400
 H                  1.59369200   -1.02410800    0.49050900
 H                  1.36335700   -1.16753400   -3.79987400
 H                 -0.07240200    0.84701400   -3.75562900
 H                 -0.74261100    1.85372000    0.61800900
 H                  0.10332000    2.21880100    6.10528400
 H                 -1.89164200    3.44473600    3.19391500
 H                 -1.16844900    3.49900600    7.44752600
 H                 -3.70971200    5.08446000    3.52226000
 H                 -4.26018400    5.93546800    5.79977600
 C                  2.60262500   -3.42876600   -2.37519400
 C                  3.78837600   -4.24963100   -2.24385700
 C                  1.60182600   -3.80193700   -3.30197500
 C                  1.77067600   -4.91816200   -4.10353100
 C                  3.94615600   -5.39744800   -3.09441200
 C                  2.91924100   -5.68678400   -4.00990800
 C                  5.12826400   -6.24630300   -3.03469300
 C                  6.15791900   -5.91394200   -2.08618600
 C                  6.01477300   -4.79546200   -1.22558000
 C                  4.82161600   -3.93527500   -1.26511000
 C                  7.32978600   -6.70438600   -1.99650400
 C                  8.32065800   -6.39535600   -1.08779200
 C                  8.17632900   -5.28364700   -0.23107300
 C                  7.03735000   -4.50205100   -0.30458500
 O                  5.26427900   -7.27543000   -3.81105000
 O                  4.73767700   -2.97377700   -0.45864100
 N                  3.05889900   -6.85565800   -4.89273800
 H                  0.68196100   -3.24051200   -3.37857800
 H                  7.41753600   -7.55406100   -2.66252600
 H                  9.21422600   -7.01034400   -1.02985800
 H                  8.95620200   -5.04341500    0.48468300
 H                  6.89585200   -3.64439400    0.34197500
 H                  4.03787900   -7.27326700   -4.60619300
 H                  2.96929200   -6.54290100   -5.86890400
 S                  0.52760300   -5.46432900   -5.32860100
 O                  0.23680500   -6.87004800   -4.89858000
 O                  1.30528000   -5.44519800   -6.60931200
 O                 -0.60517500   -4.53311600   -5.26053200
 H                  2.24566000   -7.47123500   -4.75049100

















































