%chk=192-an.chk
%nproc=8
%mem=30GB
#P UB3LYP/6-311++G(d,p) nosym opt freq SCF=YQC

Reduced

-2 1
C                  4.9613710000     -3.5701970000     -3.0942590000
O                  4.1231410000     -2.6989830000     -2.3841750000
C                  4.5937250000     -2.1193580000     -1.2278360000
C                  5.8598840000     -2.3902310000     -0.7512380000
C                  6.3280410000     -1.7857930000      0.4498720000
C                  5.5143270000     -0.9285880000      1.1393110000
C                  4.2045010000     -0.6222630000      0.6832560000
C                  3.4160660000      0.2843600000      1.4605850000
O                  3.8797710000      0.8183860000      2.5615940000
C                  2.0968470000      0.5828740000      0.9936230000
C                  1.2714810000      1.4755640000      1.7610210000
O                  1.7685950000      2.0260830000      2.9089340000
C                 -0.0026150000      1.7714080000      1.3341870000
C                 -0.9193030000      2.6622650000      2.1339650000
C                 -1.4660610000      3.7472450000      1.2117930000
O                 -2.3767600000      4.6489020000      1.9159010000
C                 -2.2459110000      3.1297460000      0.0396740000
C                 -1.8887990000      1.6704590000     -0.3160040000
O                 -2.9720960000      0.8402470000      0.2856790000
C                 -2.9933170000     -0.4506450000     -0.2289410000
C                 -2.5924610000     -1.5024440000      0.8015900000
C                 -2.6895840000     -2.9157060000      0.1886090000
N                 -1.6550020000     -3.1996130000     -0.8246460000
C                 -4.0939110000     -3.1064220000     -0.4323450000
O                 -5.1053480000     -3.1703260000      0.5867630000
C                 -4.3969890000     -1.9570590000     -1.4071400000
C                 -5.7585130000     -2.0541050000     -2.0811560000
O                 -4.3505000000     -0.7225490000     -0.6811590000
C                 -0.5188620000      1.2329200000      0.1129610000
C                  0.2173290000      0.3157590000     -0.6531590000
O                 -0.2832410000     -0.2734000000     -1.7206110000
C                  1.5814510000     -0.0040270000     -0.2110140000
C                  2.3867000000     -0.8939530000     -0.9736830000
O                  1.8851080000     -1.4161840000     -2.1275060000
C                  3.6946660000     -1.2189520000     -0.5393700000
C                 -0.3279030000      4.6844880000      0.7294570000
O                 -0.2959780000      5.1623700000     -0.3899300000
C                  0.7346410000      5.1367200000      1.7294230000
O                  1.4858310000      6.2152830000      1.1991950000
H                  4.3861170000     -3.8943860000     -3.9639780000
H                  5.2437710000     -4.4529390000     -2.5011170000
H                  5.8822580000     -3.0746860000     -3.4362680000
H                  6.5129080000     -3.0684000000     -1.2851780000
H                  7.3294670000     -2.0142540000      0.8050020000
H                  5.8323550000     -0.4482500000      2.0568900000
H                  2.7287780000      1.6231580000      2.9633530000
H                 -0.3786330000      3.0893860000      2.9835620000
H                 -1.7777650000      2.1012220000      2.5296580000
H                 -2.0899550000      4.6750200000      2.8350550000
H                 -2.1040330000      3.7564090000     -0.8425220000
H                 -3.3042660000      3.1614430000      0.3041580000
H                 -1.9781880000      1.5341340000     -1.3961680000
H                 -2.3346910000     -0.5065520000     -1.1019160000
H                 -1.5710740000     -1.2990980000      1.1310360000
H                 -3.2493400000     -1.4008080000      1.6743140000
H                 -2.5989230000     -3.6644160000      0.9821430000
H                 -1.2993530000     -2.3427700000     -1.2546350000
H                 -0.8451740000     -3.6169190000     -0.3793490000
H                 -4.1205100000     -4.0658310000     -0.9546360000
H                 -5.2407270000     -2.2595630000      0.8806320000
H                 -3.6130410000     -1.9546760000     -2.1773850000
H                 -5.8205210000     -2.9686210000     -2.6796110000
H                 -5.9088260000     -1.1936210000     -2.7377930000
H                 -6.5603470000     -2.0730090000     -1.3397500000
H                  0.9440270000     -1.0365330000     -2.1776420000
H                  0.2517060000      5.4613900000      2.6593570000
H                  1.3785990000      4.2832420000      1.9787060000
H                  1.2350600000      6.2456610000      0.2608620000















