%chk=295-an.chk
%nproc=8
%mem=30GB
#P UB3LYP/6-311++G(d,p) nosym opt freq

Reduced

-2 1
 C                 -1.02054200    2.02217600   -0.28171200
 C                 -1.46829300    2.12228200    1.02159500
 C                 -0.82580000    1.39090000    2.04844500
 C                  0.07832600    1.19599400   -0.62145200
 C                  0.73268200    0.45282400    0.42135100
 C                  0.25286300    0.57688600    1.73730700
 C                  0.53549500    1.09674200   -1.98027000
 C                  1.65730600    0.23036000   -2.20744300
 C                  2.31164000   -0.50672400   -1.23099500
 C                  1.88103700   -0.42499600    0.14430300
 O                  0.02747100    1.71000500   -2.99541700
 O                  2.45427900   -1.07764100    1.07001200
 H                 -1.49748800    2.57367300   -1.08529500
 H                 -2.31397300    2.76366300    1.25902100
 H                 -1.17585000    1.46841000    3.07459500
 H                  0.76714000    0.00506100    2.50280800
 O                  2.03948900    0.18200700   -3.52481500
 C                  3.47436500   -1.40250800   -1.57423400
 C                  4.85119300   -0.72510600   -1.41572500
 C                  6.02322000   -1.65680000   -1.74937700
 C                  7.40432100   -1.00293900   -1.61264800
 C                  8.57206000   -1.93705400   -1.95714600
 C                  9.95549300   -1.28640300   -1.82713300
 C                 11.11988500   -2.22204000   -2.17730500
 C                 12.50261100   -1.56623800   -2.04939200
 C                 13.66868200   -2.52012000   -2.40916500
 C                 15.03215100   -1.92130100   -2.29938500
 Br                16.59721200   -3.68784900   -2.94327500
 H                  1.37906300    0.79513900   -3.92631800
 H                  3.37282400   -1.75713900   -2.60620800
 H                  3.44242400   -2.26971000   -0.90542000
 H                  4.94366200   -0.36992200   -0.38365300
 H                  4.89053700    0.15862900   -2.06417300
 H                  5.90509700   -2.03188500   -2.77585800
 H                  5.97687900   -2.53912100   -1.09651800
 H                  7.52758100   -0.63339100   -0.58606100
 H                  7.44887300   -0.11685900   -2.26004700
 H                  8.44478100   -2.30873800   -2.98295200
 H                  8.52835500   -2.82234200   -1.30851000
 H                 10.08507500   -0.91715600   -0.80118300
 H                  9.99851500   -0.39981800   -2.47365000
 H                 10.99042100   -2.59242000   -3.20302200
 H                 11.07979800   -3.10801900   -1.52970500
 H                 12.64146400   -1.19962500   -1.02489600
 H                 12.55013100   -0.68156100   -2.69624600
 H                 13.51812700   -2.88363900   -3.43363500
 H                 13.61086300   -3.40242700   -1.75921200
 H                 15.43182500   -1.74046200   -1.30768500
 H                 15.33233100   -1.19583200   -3.04739400








