%chk=333-an.chk
%nproc=8
%mem=30GB
#P UB3LYP/6-311++G(d,p) nosym opt freq SCRF=(PCM,Solvent=n,n-DiMethylFormamide)

Reduced

-2 1
C                 -1.2654030000      2.4486610000     -2.9041900000
C                 -2.1493230000      2.2735940000     -1.7849460000
C                  0.0935600000      2.1633230000     -2.5365710000
C                  0.4621870000      1.4946140000     -1.3729600000
C                 -0.5343030000      0.9036790000     -0.4981930000
C                 -1.8013910000      1.6026930000     -0.6168280000
C                 -0.2865220000     -0.2204060000      0.4536370000
C                 -1.3145290000     -0.8241230000      1.2825340000
C                  0.9817110000     -0.9049080000      0.6279360000
C                  1.2841630000     -1.5709280000      1.8119840000
C                  0.3522620000     -1.7615170000      2.8883080000
C                 -0.9925270000     -1.4939520000      2.4587000000
O                 -1.6155290000      2.9535460000     -4.0223600000
O                  0.6566600000     -2.2645970000      4.0205920000
C                  1.9002690000      1.7601460000     -0.8792080000
C                  1.9484230000      3.1568710000     -0.2150550000
C                  3.0000500000      1.6838870000     -1.9547880000
C                  1.8666980000     -1.2657320000     -0.5840650000
C                  1.4265300000     -2.6455850000     -1.1286500000
C                  3.3831890000     -1.2984650000     -0.3167400000
C                 -2.7310080000     -1.0842160000      0.7254470000
C                 -3.8663310000     -1.0831870000      1.7658140000
C                 -2.7321040000     -2.4424090000     -0.0149420000
C                 -2.6321770000      1.9555650000      0.6360630000
C                 -2.1129520000      3.2922180000      1.2163200000
C                 -4.1526720000      2.0645550000      0.4181280000
H                 -3.0989600000      2.7967580000     -1.8518220000
H                  0.8539700000      2.6065510000     -3.1736940000
H                  2.2354200000     -2.0848510000      1.9196210000
H                 -1.7752910000     -1.9451880000      3.0617140000
H                  2.1421860000      1.0565500000     -0.0878430000
H                  2.9460170000      3.3539330000      0.2026250000
H                  1.2213170000      3.2189380000      0.5973020000
H                  1.7125620000      3.9425070000     -0.9395720000
H                  2.9782920000      0.7359770000     -2.4975460000
H                  3.9912930000      1.7893860000     -1.4962650000
H                  2.8920630000      2.4865000000     -2.6903820000
H                  1.6735130000     -0.5633920000     -1.3897920000
H                  1.5821200000     -3.4289010000     -0.3803170000
H                  1.9965230000     -2.9062550000     -2.0317760000
H                  0.3657540000     -2.6334790000     -1.3876620000
H                  3.6479300000     -2.1093170000      0.3683510000
H                  3.7424520000     -0.3656670000      0.1242210000
H                  3.9327800000     -1.4654420000     -1.2516210000
H                 -2.9624820000     -0.3409330000     -0.0326870000
H                 -4.8398610000     -1.1647990000      1.2664030000
H                 -3.8704890000     -0.1707620000      2.3666700000
H                 -3.7790650000     -1.9301640000      2.4530240000
H                 -3.7164090000     -2.6401360000     -0.4625380000
H                 -2.4903150000     -3.2607050000      0.6707640000
H                 -1.9894100000     -2.4413510000     -0.8154840000
H                 -2.4505620000      1.2142540000      1.4095910000
H                 -2.6537350000      3.5521700000      2.1373440000
H                 -2.2406040000      4.1063040000      0.4957240000
H                 -1.0503970000      3.2167750000      1.4565990000
H                 -4.6650920000      2.2077450000      1.3776920000
H                 -4.5641510000      1.1694410000     -0.0541290000
H                 -4.4046450000      2.9184440000     -0.2179630000


