%chk=124.chk
%nproc=8
%mem=30GB
#P UB3LYP/6-311++G(d,p) nosym opt freq

Oxidized

0 1
C                 -4.5784160000      0.2308350000      0.0346150000
C                 -3.1366390000     -0.2104140000      0.0072120000
C                 -2.7931360000     -1.5669520000     -0.0795140000
C                 -1.4644620000     -1.9729630000     -0.0932700000
C                 -0.4371100000     -1.0294300000     -0.0212490000
C                  0.9789970000     -1.4885520000     -0.0384950000
O                  1.2643280000     -2.6734190000     -0.1127140000
C                  2.0410130000     -0.4413910000      0.0406160000
C                  3.3829210000     -0.8339510000      0.0286520000
C                  4.3911520000      0.1199050000      0.1010340000
C                  4.0676770000      1.4770170000      0.1860830000
C                  2.7367080000      1.8767100000      0.1985490000
C                  1.7154230000      0.9241480000      0.1261910000
C                  0.2949920000      1.3830500000      0.1414730000
O                  0.0136260000      2.5683420000      0.2159790000
C                 -0.7661990000      0.3359090000      0.0645410000
C                 -2.1049910000      0.7285460000      0.0771780000
H                 -5.2553070000     -0.6029090000     -0.1599010000
H                 -4.7675980000      1.0054590000     -0.7135560000
H                 -4.8379420000      0.6536200000      1.0103730000
H                 -3.5796070000     -2.3121410000     -0.1377690000
H                 -1.2001630000     -3.0211630000     -0.1608140000
H                  3.6103030000     -1.8907010000     -0.0379350000
H                  5.4299880000     -0.1900660000      0.0914060000
H                  4.8555050000      2.2195900000      0.2424120000
H                  2.4630300000      2.9224950000      0.2637980000
H                 -2.3240920000      1.7884270000      0.1425860000


