%chk=163.chk
%nproc=8
%mem=30GB
#P UB3LYP/6-311++G(d,p) nosym opt freq SCRF=(PCM,Solvent=n,n-DiMethylFormamide)

Oxidized

-1 1
C                 -1.7942870000      1.9642040000     -5.1378580000
C                 -1.7405090000      0.6319020000     -5.5240270000
C                 -1.4321210000     -0.3594110000     -4.5850940000
C                 -1.5323200000      2.3238010000     -3.8096620000
C                 -1.2256790000      1.3339450000     -2.8728860000
C                 -1.1819610000     -0.0098180000     -3.2654250000
C                 -1.5977350000      3.7609100000     -3.4158050000
C                 -0.9610350000      1.6811550000     -1.4461400000
C                 -1.2454010000      4.1323220000     -2.0501650000
C                 -0.8738770000      3.1261270000     -1.0844580000
C                 -1.2273890000      5.5231940000     -1.6920930000
C                 -0.8289070000      5.8763290000     -0.3610550000
C                 -0.4311960000      4.9081610000      0.5189020000
C                 -0.4536870000      3.5442340000      0.1756630000
O                 -1.9356770000      4.5813130000     -4.2854480000
O                 -0.8299420000      0.7777260000     -0.6330130000
H                 -2.0369460000      2.7501320000     -5.8418190000
H                 -1.9394530000      0.3589330000     -6.5550110000
H                 -1.3910760000     -1.4003340000     -4.8876730000
H                 -0.9496560000     -0.7556390000     -2.5154200000
Br                 0.1647880000      2.3874120000      1.5828470000
N                 -1.5556120000      6.4976890000     -2.5534640000
S                 -0.9323170000      7.6079730000      0.2585300000
O                 -0.4849230000      8.4272230000     -0.9079700000
O                 -2.3663940000      7.7740340000      0.5784490000
O                 -0.0190660000      7.6423600000      1.4170290000
H                 -0.1038240000      5.2155920000      1.5037640000
H                 -1.8016050000      6.2291590000     -3.4967770000
H                 -1.3500820000      7.4569920000     -2.2705410000


