%chk=025-rad.chk
%nproc=8
%mem=30GB
#P UB3LYP/6-311++G(d,p) nosym  opt freq

Radical

-1 2
C         -1.49808       -0.10370        1.47409
C         -2.60108        0.83232        1.10645
C         -2.45144        1.59660       -0.01459
C         -1.20145        1.49730       -0.81524
C         -0.09773        0.56212       -0.44705
C         -0.24758       -0.20240        0.67401
O         -1.08804        2.18690       -1.81824
O         -1.61204       -0.79371        2.47675
Br         1.08940       -1.37865        1.43146
Br        -3.78883        2.77346       -0.77034
N          1.06419        0.56673       -1.30104
N         -3.76221        0.82974        1.96132
C         -4.67567        1.93350        2.21029
C         -6.09657        1.55121        1.75297
C         -7.08096        2.69140        2.05092
C         -7.08116        3.01999        3.55031
C         -5.66888        3.40517        4.01182
C         -4.68261        2.26543        3.71690
C          1.98448       -0.53238       -1.54530
C          3.40154       -0.14096       -1.08375
C          1.99850       -0.86675       -3.05133
C          2.99279       -2.00092       -3.34104
C          4.39382       -1.27557       -1.37650
C          4.40114       -1.60638       -2.87536
H          1.20494        1.39408       -1.90130
H         -3.90511        0.00212        2.56069
H         -4.34708        2.85297        1.70365
H         -6.42748        0.63133        2.28472
H         -6.09923        1.33932        0.66248
H         -8.10355        2.39498        1.73325
H         -6.78538        3.59523        1.47348
H         -7.42914        2.13248        4.12377
H         -7.78155        3.85925        3.74932
H         -5.67728        3.62008        5.10190
H         -5.34272        4.32535        3.47845
H         -4.98224        1.36650        4.30075
H         -3.66260        2.56593        4.04130
H          1.65968       -1.45286       -1.03843
H          3.39907        0.07258        0.00643
H          3.72877        0.78010       -1.61577
H          2.29468        0.03301       -3.63566
H          0.98145       -1.17399       -3.37868
H          3.00626       -2.21751       -4.43074
H          2.67050       -2.92224       -2.80730
H          4.10177       -2.18028       -0.79865
H          5.41348       -0.97239       -1.05576
H          5.10737       -2.44160       -3.07068
H          4.74564       -0.71760       -3.44897



