%chk=308-an.chk
%nproc=8
%mem=30GB
#P UB3LYP/6-311++G(d,p) nosym opt freq

Reduced

-2 1
C                 -4.0723930000      3.5799650000      1.5414600000
C                 -4.5650610000      3.8077350000      0.2740670000
C                 -3.9651730000      3.1586500000     -0.8266020000
C                 -2.8819140000      2.3059560000     -0.6434990000
C                 -2.3516160000      2.0201920000      0.6495560000
C                 -2.9780970000      2.7121450000      1.7657660000
C                 -2.5204810000      2.5423750000      3.1434430000
C                 -1.4191970000      1.6572570000      3.2929730000
C                 -0.8027110000      0.9777210000      2.2417330000
C                 -1.2327960000      1.0951940000      0.8729020000
O                 -3.0685370000      3.1578000000      4.1340540000
O                 -0.6549080000      0.4172010000     -0.0458750000
H                 -4.5015660000      4.0522740000      2.4184250000
H                 -4.3525230000      3.3094010000     -1.8349130000
O                 -2.3222340000      1.7203960000     -1.7639680000
C                  0.3579780000      0.0536580000      2.5055850000
H                 -5.4072690000      4.4766580000      0.1102030000
H                 -1.0474210000      1.5209690000      4.3097270000
H                 -2.7414160000      2.1442560000     -2.5236380000
H                  0.6559790000      0.0906060000      3.5610450000
H                  1.2216340000      0.3148300000      1.8789880000
H                  0.1160620000     -0.9873670000      2.2453890000





