%chk=301-an.chk
%nproc=8
%mem=30GB
#P UB3LYP/6-311++G(d,p) nosym opt freq SCF=YQC

Reduced

-2 1
C                 -0.70384400    2.72557300    0.64372400
 C                 -1.68765300    2.56496000   -0.31821200
 C                 -1.43595100    1.78614800   -1.45905000
 C                  0.55401100    2.11239100    0.48891600
 C                  0.81005700    1.32759300   -0.65913600
 C                 -0.19836400    1.17756300   -1.62015600
 C                  1.58837000    2.27999900    1.49862900
 C                  2.84866700    1.62604200    1.27540200
 C                  3.15757300    0.83369400    0.14933100
 C                  2.12751900    0.64565800   -0.88901900
 O                  1.44624200    2.96568100    2.55986200
 O                  2.28814500   -0.02693800   -1.91024800
 O                  3.74553800    1.83560200    2.25835100
 H                 -0.87246000    3.32120900    1.53323500
 H                 -2.65463200    3.04204500   -0.18970800
 H                 -2.20677800    1.66025000   -2.21285700
 H                  0.02481800    0.57076300   -2.48994200
 H                  3.24244900    2.40947400    2.87856200
 N                  4.42647900    0.30800400    0.15183500
 N                  4.81542500   -0.41617300   -0.82033000
 C                  6.14269400   -0.88001900   -0.66505900
 C                  6.98110100   -0.60146400    0.43156400
 C                  6.63549600   -1.68187900   -1.70640000
 C                  7.92899800   -2.19386100   -1.65954000
 C                  8.75646000   -1.91493200   -0.57048100
 C                  8.27101900   -1.11635800    0.47084200
 H                  6.59278500    0.01780100    1.23024200
 H                  5.97502500   -1.88537100   -2.54187500
 H                  8.29354100   -2.81224300   -2.47404300
 H                  9.76531200   -2.31281800   -0.53115000
 H                  8.90955900   -0.89546500    1.32135800












