%chk=292.chk
%nproc=8
%mem=30GB
#P UB3LYP/6-311++G(d,p) nosym opt freq

Oxidized

0 1
 C                  0.92454400    2.16007000   -1.43162300
 C                  1.07153100    3.21564500   -0.53698400
 C                  1.87835000    3.06587800    0.59242500
 C                  1.58716400    0.95355400   -1.19371700
 C                  2.39957100    0.79980300   -0.05822200
 C                  2.54000200    1.86285900    0.83209300
 C                  1.44168000   -0.17405000   -2.13193700
 C                  2.17533700   -1.43823500   -1.83432600
 C                  2.95663800   -1.61321900   -0.74025500
 C                  3.11735900   -0.49286000    0.20980800
 O                  0.75348000   -0.13968000   -3.14571100
 O                  3.82031800   -0.60952100    1.20428300
 O                  1.98902700   -2.40423700   -2.74794300
 H                  0.30402400    2.25224600   -2.31458800
 H                  0.55954200    4.15359300   -0.71805400
 H                  1.99171800    3.88958400    1.28809000
 H                  3.16940500    1.72995800    1.70322400
 H                  1.38321900   -2.03115500   -3.41643800
 C                  3.69328600   -2.89535700   -0.47040400
 C                  5.13311500   -2.86733000   -1.02959100
 C                  5.89932700   -4.19909200   -0.85400700
 C                  7.21622100   -4.16241900   -1.61591400
 C                  8.25591400   -3.29916700   -1.24388000
 C                  7.42253400   -4.98525100   -2.72677400
 C                  9.45442300   -3.25629200   -1.94938600
 C                  9.63525200   -4.09740600   -3.04713100
 C                  8.62025400   -4.96201100   -3.44010100
 H                  3.14529200   -3.72543500   -0.92417700
 H                  3.72054800   -3.05067400    0.60937900
 H                  5.68858500   -2.05850600   -0.54393500
 H                  5.09258400   -2.62865000   -2.09686200
 H                  5.28979200   -4.98666500   -1.31396100
 C                  6.10655200   -4.57535000    0.62489100
 H                  8.13174100   -2.63795100   -0.39307100
 H                  6.63503800   -5.66245100   -3.04202000
 H                  8.77504800   -5.60197700   -4.30051700
 O                 10.77295700   -4.04162000   -3.83510200
 C                 12.02812100   -4.09143500   -3.26378500
 C                 12.30236900   -4.78914200   -2.08681300
 C                 13.05369600   -3.45970000   -3.96772600
 C                 14.35843300   -3.52376600   -3.48764100
 C                 13.61315600   -4.83974400   -1.61461400
 C                 14.64547800   -4.21034100   -2.30763900
 H                 10.24349400   -2.57513900   -1.65397000
 H                  5.15304900   -4.72113100    1.13797900
 H                  6.65483700   -3.79563500    1.16149400
 H                  6.67580100   -5.50443400    0.70949400
 H                 11.50442100   -5.28683000   -1.55050900
 H                 12.81235400   -2.93081100   -4.88181900
 H                 15.15276500   -3.03112300   -4.03719800
 H                 13.82531600   -5.38326100   -0.70055700
 H                 15.66165700   -4.25558700   -1.93415500


