%chk=134-an.chk
%nproc=8
%mem=30GB
#P UB3LYP/6-311++G(d,p) nosym opt freq

Reduced

-2 1
C                  7.0980310000     -1.8457650000     -0.5885420000
C                  7.6248180000     -0.8179010000     -1.4568860000
C                  6.7583170000      0.2507630000     -1.8983550000
C                  5.4547610000      0.2604900000     -1.4746550000
C                  4.8787600000     -0.7151730000     -0.6262110000
C                  5.7058380000     -1.8170840000     -0.1533660000
C                  5.1487420000     -2.8259310000      0.7109200000
C                  3.7337680000     -2.6570080000      1.0546920000
C                  2.9334710000     -1.5671600000      0.5807240000
C                  3.4862990000     -0.5395800000     -0.2910240000
C                  3.1214520000     -3.6145390000      1.8985000000
C                  1.7923900000     -3.5239330000      2.2678550000
C                  1.0036920000     -2.4448780000      1.7966710000
C                  1.5762660000     -1.4951390000      0.9718880000
O                  5.7875200000     -3.8334930000      1.1873650000
O                  2.7682560000      0.4323410000     -0.7140630000
H                  4.7827060000      1.0544210000     -1.7899960000
H                  3.7532180000     -4.4272820000      2.2413840000
H                  1.0064430000     -0.6539180000      0.5898810000
C                  7.2796160000      1.3398270000     -2.8009020000
H                 -0.0435640000     -2.3660920000      2.0831810000
C                  8.9754270000     -0.8745330000     -1.8644480000
C                  8.0064450000     -2.8629140000     -0.1938890000
C                  9.3341950000     -2.8796340000     -0.6185800000
C                  9.8461600000     -1.8933750000     -1.4660970000
C                 11.2893070000     -1.9017890000     -1.9139720000
H                  1.3524480000     -4.2780180000      2.9182930000
H                  8.1187990000      1.8958630000     -2.3510790000
H                  6.4840390000      2.0579520000     -3.0206160000
H                  7.6529700000      0.9497150000     -3.7603700000
H                  9.3547730000     -0.0967160000     -2.5213440000
H                  7.6157320000     -3.6322370000      0.4580070000
H                  9.9866960000     -3.6831020000     -0.2782160000
H                 11.8328760000     -1.0018290000     -1.5828020000
H                 11.3834430000     -1.9378820000     -3.0068700000
H                 11.8215630000     -2.7700090000     -1.5104190000


