%chk=253.chk
%nproc=24
%mem=90GB
#P UB3LYP/6-311++G(d,p) nosym opt freq Int=Acc2E=11 SCRF=(PCM,Solvent=n,n-DiMethylFormamide)

Oxidized

0 1
 C                 -5.70276400   -2.55184200    3.40573400
 C                 -6.43179800   -2.90814000    2.27444800
 C                 -7.35541700   -2.01529300    1.72627000
 C                 -5.89402500   -1.30008200    3.99577600
 C                 -6.82081900   -0.40305000    3.44435200
 C                 -7.54934100   -0.76595200    2.30913500
 C                 -5.11730300   -0.92169400    5.20733600
 C                 -5.36067400    0.41446800    5.83207800
 C                 -6.23230500    1.29314000    5.27722900
 C                 -7.02482400    0.93357400    4.06525100
 O                 -4.28887700   -1.68823600    5.68477100
 O                 -7.83120400    1.72824900    3.59449900
 H                 -6.28177400   -3.88017000    1.81952700
 H                 -7.92231100   -2.29422500    0.84585300
 C                 -4.56811400    0.72615900    7.07110200
 H                 -4.98415300   -3.23458700    3.84105300
 H                 -8.26132600   -0.06376900    1.89436400
 H                 -3.71988400    1.37751300    6.83228700
 H                 -4.16772200   -0.18687300    7.50788100
 H                 -5.18137400    1.23997200    7.81209200
 C                 -6.48720700    2.66998200    5.85285900
 C                 -7.61438600    2.66003000    6.86417900
 C                 -7.63433900    3.21607800    8.08442900
 C                 -8.88340800    3.11416000    8.93719300
 C                 -9.60432100    4.46609700    9.16872000
 C                -10.80123900    4.32304500   10.06887900
 C                -12.09634700    4.53184700    9.78654600
 C                 -6.48467800    3.97336800    8.70206500
 C                -13.15024800    4.31831600   10.85544300
 C                -14.09082700    3.11500700   10.59289500
 C                -15.15695600    2.99115300   11.64712000
 C                -15.36440800    1.99629100   12.52338000
 C                -12.61620600    4.99420000    8.44672900
 C                -14.53698100    0.73570200   12.59837200
 C                -16.50199800    2.08922000   13.52147300
 C                -16.04332200    2.25653100   14.99239700
 C                -17.20459400    2.29655400   15.94797600
 C                -17.60608100    3.30076600   16.74241600
 C                -16.91240400    4.63768400   16.84776800
 C                -18.82603700    3.13006700   17.62654700
 C                -20.04231100    3.99308200   17.20498400
 C                -21.19532200    3.85443300   18.16131700
 C                -22.42212900    3.35927500   17.93676200
 C                -22.90526300    2.84242400   16.60310100
 C                -23.43635200    3.30557900   19.06256000
 C                -23.78991000    1.87216100   19.53394700
 C                -24.83776200    1.87376700   20.61347500
 C                -24.73373400    1.46797100   21.88829700
 C                -23.48600400    0.87706600   22.49929500
 C                -25.92501900    1.57746100   22.82004800
 C                -25.76457700    2.64629400   23.93095100
 C                -26.93732600    2.66729100   24.87303400
 C                -27.82581300    3.64929900   25.08970300
 C                -27.79563800    4.99615600   24.40824900
 C                -28.95030600    3.44976200   26.08703800
 H                 -6.76186900    3.33124900    5.02572200
 H                 -5.56795500    3.06184200    6.28634500
 H                 -8.51386300    2.14738900    6.52918900
 H                 -8.61602000    2.69253300    9.91524900
 H                 -9.58788400    2.41752500    8.47367200
 H                 -9.87688600    4.89073300    8.19989000
 H                 -8.90116000    5.16863600    9.63164500
 H                -10.56234600    3.99616100   11.08144000
 H                 -5.56321800    3.90174600    8.12461400
 H                 -6.28281800    3.60205700    9.71277400
 H                 -6.72424800    5.03730100    8.80240100
 H                -13.76530500    5.22421900   10.94134100
 H                -12.66379000    4.17421200   11.82474700
 H                -13.48881100    2.20649300   10.51927800
 H                -14.57594100    3.24877600    9.61859800
 H                -15.83614200    3.84293700   11.69695000
 H                -11.82340500    5.19076600    7.72574000
 H                -13.20292900    5.91283700    8.56345500
 H                -13.28814500    4.25079400    8.00515000
 H                -13.76590700    0.68506000   11.83028200
 H                -15.17887100   -0.14658700   12.49182900
 H                -14.04229000    0.64380300   13.57106000
 H                -17.11932400    1.18342600   13.45287600
 H                -17.14858300    2.93252900   13.26124400
 H                -15.42819500    3.15594800   15.06872900
 H                -15.39747300    1.41218200   15.26148400
 H                -17.79337000    1.37901200   15.97518800
 H                -16.01422600    4.70220700   16.23448600
 H                -16.62704600    4.83638400   17.88744600
 H                -17.57774100    5.45391900   16.54731900
 H                -18.56140900    3.38850100   18.66068300
 H                -19.13071500    2.07927600   17.63198700
 H                -20.32868000    3.72391600   16.18579800
 H                -19.73773200    5.04612300   17.17635100
 H                -20.98031700    4.20139000   19.17261600
 H                -22.16541100    2.94976600   15.81051400
 H                -23.81159400    3.37640400   16.29445000
 H                -23.17484100    1.78273000   16.66336600
 H                -24.36197600    3.80055700   18.73916500
 H                -23.05976600    3.87031600   19.92058800
 H                -22.87501000    1.37332300   19.86155700
 H                -24.16909400    1.29987400   18.67889000
 H                -25.80221300    2.27474400   20.29983300
 H                -22.66559500    0.78295700   21.78856700
 H                -23.69751000   -0.11896900   22.90561600
 H                -23.12975900    1.48474700   23.33773900
 H                -26.10089100    0.60486100   23.29880100
 H                -26.82308700    1.81116900   22.24054100
 H                -25.60735200    3.62003800   23.46165900
 H                -24.85763500    2.42680700   24.50689000
 H                -27.07190800    1.74527200   25.43966000
 H                -26.94521500    5.11653000   23.73791800
 H                -27.75448400    5.79836000   25.15429500
 H                -28.70555100    5.16375600   23.82240200
 H                -28.95215400    4.28385900   26.80153600
 H                -28.76910600    2.53901100   26.66554900
 C                -30.35858600    3.35338000   25.44697200
 C                -31.44331500    3.22451400   26.48142200
 C                -32.27957600    2.19838900   26.70100900
 C                -32.30570500    0.92656700   25.88797600
 C                -33.29568600    2.27316500   27.82401400
 C                -32.99774900    1.32324900   29.01210500
 C                -34.07018100    1.37712200   30.06582700
 C                -33.98367100    1.81092000   31.33273000
 C                -32.71915300    2.32817600   31.97518100
 C                -35.20673100    1.78936000   32.22875200
 C                -35.76372900    3.19246300   32.57889500
 C                -36.92626100    3.12102200   33.53124800
 C                -38.19862300    3.49422600   33.33029700
 C                -38.73113500    4.09490600   32.05306600
 C                -39.23262700    3.33530500   34.41968400
 H                -30.36965900    2.51633500   24.74521900
 H                -30.54375700    4.25869700   24.85664700
 H                -31.53749300    4.08838000   27.14036700
 H                -31.58229200    0.92539300   25.07326200
 H                -33.30161600    0.77240000   25.45631600
 H                -32.10065500    0.05220300   26.51455300
 H                -34.29123500    2.03108300   27.42870900
 H                -33.34731600    3.29782700   28.20395900
 H                -32.01672100    1.57188000   29.42310200
 H                -32.92794600    0.29534100   28.63682100
 H                -35.04532300    1.02243400   29.73038500
 H                -31.85743900    2.29528800   31.30923000
 H                -32.47911000    1.74008200   32.86874000
 H                -32.84030300    3.36401400   32.30905200
 H                -34.95915200    1.27256800   33.16569100
 H                -36.00156500    1.21007000   31.74947000
 H                -36.03349300    3.70623800   31.65330600
 H                -34.96708000    3.78584700   33.04347900
 H                -36.68271500    2.69583400   34.50535600
 H                -37.97908200    4.18305900   31.26961200
 H                -39.14220500    5.09362900   32.24213900
 H                -39.55749300    3.48938600   31.66300500
 H                -38.80592700    2.89824400   35.32491600
 H                -40.05808400    2.69569400   34.08526400
 H                -39.67643100    4.30308100   34.68214500

























