%chk=318-an.chk
%nproc=8
%mem=30GB
#P UB3LYP/6-311++G(d,p) nosym opt freq SCRF=(PCM,Solvent=n,n-DiMethylFormamide)

Reduced

-2 1
Br                -2.4543940000      2.1910550000      0.4899220000
C                 -0.9313630000      0.8447400000      0.4630110000
C                 -1.2583440000     -0.4988240000      0.3002160000
Br                -2.8776210000     -1.2386740000      1.1694780000
C                 -0.3951180000     -1.4802040000     -0.2839220000
O                 -0.6605740000     -2.6865970000     -0.4213770000
C                  1.0514060000     -0.9963040000     -0.5739970000
O                  1.8995300000     -1.8301830000     -0.9346670000
C                  1.3202750000      0.3638340000     -0.2171220000
C                  0.3561150000      1.2755430000      0.2046190000
Br                 0.7047500000      3.2476380000     -0.1429670000
Br                 3.2441380000      0.8091770000     -0.0587940000


