%chk=343-an-PCM.chk
%nproc=8
%mem=30GB
#P UB3LYP/6-311++G(d,p) SCRF=(PCM,Solvent=n,n-DiMethylFormamide)

Reduced 

-2 1
O                  0.0998540000      2.9838620000      0.8637540000
C                  0.0602490000      1.7679800000      0.4854200000
C                  1.1830150000      0.8572000000      0.2926760000
C                  2.5649500000      1.0600420000      0.4677850000
C                  3.4569980000      0.0225770000      0.2205770000
C                  2.9932740000     -1.2472870000     -0.2053610000
C                  1.6217870000     -1.4737640000     -0.3603790000
C                  0.7085110000     -0.4514520000     -0.0973010000
C                 -0.7361000000     -0.3858000000     -0.1567870000
C                 -1.7131090000     -1.3222770000     -0.4982490000
C                 -3.0667910000     -0.9722170000     -0.4551680000
C                 -3.4473150000      0.3354240000     -0.0633380000
C                 -2.4885490000      1.2890080000      0.2603760000
C                 -1.1208050000      0.9617580000      0.1981410000
H                  2.9210150000      2.0344780000      0.7932320000
H                  4.5271770000      0.1827040000      0.3427400000
H                  3.7061970000     -2.0418640000     -0.4173550000
H                  1.2724790000     -2.4542100000     -0.6805850000
H                 -1.4291640000     -2.3313350000     -0.7930510000
H                 -3.8286080000     -1.6999630000     -0.7283390000
H                 -4.5049940000      0.5922520000     -0.0283690000
H                 -2.7800720000      2.2928820000      0.5595820000





