%chk=050-an.chk
%nproc=8
%mem=30GB
#P UB3LYP/6-311++G(d,p) nosym opt freq SCF=YQC Int=Acc2E=11

Reduced

-2 1
 C                  7.24059200    1.19595000    0.18488000
 C                  8.36616900    1.03092100    1.08494700
 C                  8.97660500   -0.20046300    1.26529400
 C                  8.52814700   -1.38984800    0.56201700
 C                  7.39437400   -1.22689300   -0.33310900
 C                  6.79289100    0.00907600   -0.51782900
 O                  6.66743300    2.32622600    0.01001600
 O                  9.10229700   -2.52133600    0.72199600
 C                  5.62994400    0.20861400   -1.47731700
 C                  6.91472900   -2.46658300   -1.05201000
 C                  8.84613500    2.25924700    1.81960900
 C                 10.14496900   -0.35973500    2.20836900
 C                  4.28868200    0.13167800   -0.79247500
 H                  5.69013100   -0.49335100   -2.31228000
 H                  5.72658900    1.22494300   -1.87991800
 H                  7.45551800   -3.32882900   -0.65858200
 H                  7.10273700   -2.41776500   -2.13487300
 H                  5.83825100   -2.62708800   -0.92110600
 H                  8.24727900    3.11600300    1.50620900
 H                  9.90485000    2.47324700    1.61643000
 H                  8.75518300    2.14965200    2.90980800
 H                  9.89248800   -0.04895500    3.23179400
 H                 11.00758100    0.24998500    1.90278800
 H                 10.44850800   -1.40771700    2.22252600
 C                  3.20628800   -0.59243400   -1.11740200
 C                  3.13584400   -1.53521100   -2.29709100
 C                  1.94496700   -0.51270100   -0.27802100
 C                  0.72786500    0.10228000   -0.99849500
 C                 -0.52835900    0.15319300   -0.11794600
 C                 -1.80923700    0.66245400   -0.81159300
 C                 -3.03884100    0.43234400    0.09168100
 C                 -4.40277400    0.69319700   -0.56410200
 C                 -5.58421100    0.35654400    0.35701100
 C                 -6.98661100    0.52306500   -0.26526800
 C                 -8.05568400   -0.07600100    0.67200000
 C                 -9.47579800   -0.16303100    0.09403800
 C                 -1.67910300    2.13339100   -1.23698500
 C                -10.46146400   -0.85002900    1.04927600
 C                -11.89047700   -1.04655700    0.50499000
 C                -12.61347100    0.28207900    0.23774600
 C                -12.70970800   -1.92719800    1.45958700
 H                  4.22436800    0.77335300    0.08436500
 H                  4.11004300   -1.68886000   -2.76062000
 H                  2.45396600   -1.16694400   -3.07456200
 H                  2.75425700   -2.51701700   -1.98601300
 H                  2.15375400    0.07224400    0.62396400
 H                  1.66851700   -1.52316700    0.06237200
 H                  0.50148600   -0.47658500   -1.90265400
 H                  1.00258000    1.10737400   -1.33510200
 H                 -0.32907600    0.77735400    0.76445900
 H                 -0.72233700   -0.85689400    0.26606400
 H                 -1.95235400    0.05949600   -1.72081000
 H                 -2.94241100    1.05941900    0.98921500
 H                 -3.01662600   -0.60592600    0.44670100
 H                 -4.48088000    0.09277500   -1.48090900
 H                 -4.46662600    1.73920300   -0.87724900
 H                 -5.52358400    0.97338500    1.26461200
 H                 -5.47681500   -0.68326700    0.69220100
 C                 -7.28803500    1.98804500   -0.61844000
 H                 -8.07843900    0.50664800    1.60369400
 H                 -7.73587500   -1.08657800    0.95776400
 H                 -9.44559600   -0.71777000   -0.85357800
 H                 -9.83968800    0.83896100   -0.15077800
 H                 -0.82089100    2.28633600   -1.89509000
 H                 -1.54228400    2.77619800   -0.35934800
 H                 -2.56652700    2.48306200   -1.77096200
 H                -10.51517700   -0.28294000    1.98879100
 H                -10.05777400   -1.83593700    1.31683900
 H                -11.80906900   -1.58129200   -0.45154200
 H                -12.10048800    0.88915600   -0.51542800
 H                -12.68982700    0.88128900    1.15266800
 H                -13.63303600    0.10679200   -0.12371200
 H                -12.23257600   -2.90312700    1.61085900
 H                -13.71864600   -2.10706000    1.07322600
 H                -12.81444000   -1.45182200    2.44222000
 H                 -7.00403700   -0.05926400   -1.19832500
 H                 -7.29228800    2.61121200    0.28375900
 H                 -8.26388500    2.09753700   -1.09859100
 H                 -6.54400900    2.40183200   -1.30467200



































