%chk=097.chk
%nproc=8
%mem=30GB
#P UB3LYP/6-311++G(d,p) nosym opt freq

Oxidized

0 1
C          1.18299        4.24477        5.26985
C          1.59241        3.95317        3.88728
C          1.15776        2.85956        3.26407
C          0.25251        1.90578        3.93129
C         -0.04925        2.11791        5.36264
C          0.38964        3.22292        5.98983
O          1.49561        5.31517        5.77463
O         -0.22157        0.99625        3.26559
H          2.23966        4.67716        3.40517
H          1.42924        2.63587        2.23799
S         -0.93298        0.86794        6.17576
C          0.13503        3.49429        7.41194
O          0.94404        3.27451        8.29629
O         -1.09693        4.05032        7.52654
C         -1.44751        4.37128        8.87391
H         -2.46911        4.76139        8.87252
H         -0.78049        5.14501        9.26629
H         -1.42039        3.47760        9.50528
C         -2.55194        0.95509        5.42579
C         -2.90446        0.06316        4.40992
C         -3.48236        1.87860        5.91665
C         -4.18176        0.12703        3.85286
C         -4.75925        1.93177        5.35826
C         -5.10561        1.06108        4.32437
O         -0.35907       -0.42330        5.84484
O         -1.15026        1.18196        7.57597
H         -2.19354       -0.67379        4.04017
H         -3.23459        2.54361        6.74037
H         -4.45900       -0.55679        3.05386
H         -5.49035        2.64268        5.73632
H         -6.10305        1.10123        3.89251









