%chk=256.chk
%nproc=8
%mem=30GB
#P UB3LYP/6-311++G(d,p) nosym opt freq

Oxidized

0 1
C                 -1.5469210000      2.7924820000     -0.0237170000
C                 -2.8121050000      2.2063300000     -0.0176380000
C                 -2.9169390000      0.7960730000      0.0135000000
C                 -0.3854900000      2.0189240000     -0.0037960000
C                 -0.4897020000      0.6249700000      0.0271220000
C                 -1.7519950000      0.0301920000      0.0354160000
C                  0.9487770000      2.6763070000     -0.0144500000
C                  2.1737400000      1.8120110000      0.0061170000
C                  2.0679190000      0.4609880000      0.0490860000
C                  0.7346390000     -0.2164230000      0.0542680000
O                  1.0486190000      3.8945090000     -0.0415120000
O                  0.6687230000     -1.4372250000      0.0779470000
C                  3.4939070000      2.5368000000     -0.0192030000
C                  3.2484940000     -0.4673770000      0.0754910000
H                 -1.4431260000      3.8710500000     -0.0475510000
C                 -4.0460070000      3.0725020000     -0.0398680000
C                 -4.2652300000      0.1213180000      0.0233080000
H                  3.3291620000      3.6084690000     -0.1130640000
H                  4.1129950000      2.2022280000     -0.8552650000
H                  4.0595230000      2.3576410000      0.9006020000
H                  4.1846010000      0.0608610000      0.2772830000
H                  3.3403070000     -0.9922370000     -0.8877540000
H                  3.0996790000     -1.2479140000      0.8320800000
H                 -1.8076270000     -1.0520220000      0.0594460000
H                 -3.7817040000      4.1304410000     -0.0623360000
H                 -4.6735750000      2.8998730000      0.8405940000
H                 -4.6664630000      2.8607880000     -0.9168310000
H                 -4.8567430000      0.4218830000      0.8943260000
H                 -4.1600400000     -0.9640380000      0.0445310000
H                 -4.8512850000      0.3850290000     -0.8631390000






















