%chk=256-rad.chk
%nproc=8
%mem=30GB
#P UB3LYP/6-311++G(d,p) nosym  opt freq

Radical

-1 2
C                 -1.5340330000      2.7892900000     -0.0255360000
C                 -2.7929560000      2.2103560000     -0.0179540000
C                 -2.8990360000      0.7911620000      0.0129120000
C                 -0.3521660000      2.0243830000     -0.0038370000
C                 -0.4582510000      0.6149220000      0.0287770000
C                 -1.7397850000      0.0324950000      0.0344020000
C                  0.9572200000      2.6912450000     -0.0132030000
C                  2.1265280000      1.8316000000      0.0104140000
C                  2.0184790000      0.4452540000      0.0443900000
C                  0.7397500000     -0.2330360000      0.0522380000
O                  1.0412790000      3.9524340000     -0.0405820000
O                  0.6554620000     -1.4933120000      0.0776030000
C                  3.4672230000      2.5311210000     -0.0055160000
C                  3.2233110000     -0.4632400000      0.0670780000
H                 -1.4225190000      3.8684510000     -0.0488840000
C                 -4.0312440000      3.0768990000     -0.0422500000
C                 -4.2522190000      0.1177210000      0.0222560000
H                  3.3015070000      3.6084620000     -0.0496230000
H                  4.0733540000      2.2367040000     -0.8711120000
H                  4.0584180000      2.3070150000      0.8920450000
H                  4.1639830000      0.0902890000      0.1671030000
H                  3.2688570000     -1.0725990000     -0.8513670000
H                  3.1397860000     -1.1841760000      0.8961960000
H                 -1.7888570000     -1.0514400000      0.0580530000
H                 -3.7598470000      4.1347990000     -0.0641990000
H                 -4.6651910000      2.9130430000      0.8382580000
H                 -4.6575930000      2.8745650000     -0.9201800000
H                 -4.8516360000      0.4113980000      0.8931610000
H                 -4.1409240000     -0.9687040000      0.0463730000
H                 -4.8447740000      0.3731290000     -0.8652270000





