%chk=328.chk
%nproc=8
%mem=30GB
#P UB3LYP/6-311++G(d,p) nosym opt freq

Oxidized

0 1
C                 -1.2557180000      2.5848030000     -0.7345080000
C                 -2.3038010000      1.9290410000     -0.1315230000
C                 -2.1278920000      0.6229100000      0.3809170000
C                  0.0130250000      1.9623170000     -0.8507640000
C                  0.1915570000      0.6411310000     -0.3328310000
C                 -0.9085530000     -0.0073100000      0.2830400000
C                  1.1160810000      2.6035040000     -1.4641350000
C                  2.3412720000      1.9851760000     -1.5692700000
C                  2.5217150000      0.6628310000     -1.0517140000
C                  1.4615490000      0.0197940000     -0.4503750000
C                  3.4658180000      2.7092620000     -2.2247720000
C                  4.8285910000      1.9685260000     -2.3187830000
C                  4.9048040000      0.6279350000     -1.7616720000
C                  3.8399480000      0.0184010000     -1.1738770000
O                  3.3533330000      3.8272090000     -2.6746600000
O                  5.7750090000      2.5214970000     -2.8459070000
H                 -1.3857630000      3.5866510000     -1.1288520000
H                 -3.2705740000      2.4116550000     -0.0463410000
H                 -2.9624400000      0.1177480000      0.8536780000
H                 -0.7750860000     -1.0092530000      0.6763760000
H                  1.0083810000      3.6052850000     -1.8650970000
H                  1.5950050000     -0.9799430000     -0.0578580000
H                  5.8685950000      0.1451250000     -1.8459910000
O                  3.8701900000     -1.2199970000     -0.6473640000
C                  5.0909240000     -1.9760910000     -0.6887440000
C                  4.8260850000     -3.3034080000     -0.0323090000
C                  5.7318270000     -4.2666790000      0.0993570000
H                  5.8743450000     -1.4194520000     -0.1623840000
H                  5.4000620000     -2.1009680000     -1.7325300000
H                  3.8166670000     -3.4376630000      0.3448120000
H                  6.7486800000     -4.1605960000     -0.2673270000
H                  5.4861430000     -5.2039420000      0.5835350000





