%chk=122.chk
%nproc=8
%mem=30GB
#P UB3LYP/6-311++G(d,p) nosym opt freq SCRF=(PCM,Solvent=n,n-DiMethylFormamide)

Oxidized

0 1
Cl                -2.4169860000      2.8513900000      1.6220970000
C                 -2.3790520000      1.2268120000      0.9749910000
C                 -3.6143960000      0.6225780000      0.7458130000
C                 -3.6834590000     -0.6588070000      0.2081360000
C                 -2.5179840000     -1.3319240000     -0.1318510000
C                 -1.2806980000     -0.7203760000      0.0704690000
C                 -0.0571910000     -1.4559520000     -0.3650570000
O                 -0.1165010000     -2.6181810000     -0.7276230000
C                  1.2277710000     -0.6980730000     -0.4113660000
C                  2.3123840000     -1.2889030000     -1.0597140000
C                  3.5092450000     -0.5948860000     -1.1731400000
C                  3.6224430000      0.6867000000     -0.6434900000
C                  2.5497090000      1.2703800000      0.0290030000
Cl                 2.7970020000      2.8972980000      0.6218030000
C                  1.3299150000      0.5844710000      0.1666570000
C                  0.1754190000      1.1156590000      0.9652300000
O                  0.3412210000      1.9100220000      1.8656270000
C                 -1.1834560000      0.5622480000      0.6491620000
H                 -4.5167560000      1.1662830000      0.9946910000
H                 -4.6506190000     -1.1205060000      0.0474470000
H                 -2.5395720000     -2.3248570000     -0.5620100000
H                  2.1900850000     -2.2826390000     -1.4707620000
H                  4.3558320000     -1.0404290000     -1.6822220000
H                  4.5434420000      1.2464930000     -0.7444920000


