%chk=121-an-PCM.chk
%nproc=8
%mem=30GB
#P UB3LYP/6-311++G(d,p) SCRF=(PCM,Solvent=n,n-DiMethylFormamide)

Reduced 

-2 1
Cl                 2.6512160000      3.2071670000     -0.5224900000
C                  2.4745940000      1.4433650000     -0.2068430000
C                  3.6791100000      0.7922760000     -0.0621600000
C                  3.6928900000     -0.6044680000      0.1913190000
C                  2.4984970000     -1.2779250000      0.2870200000
C                  1.2458110000     -0.6333650000      0.1424510000
C                  0.0726640000     -1.4857480000      0.2710110000
O                  0.1964630000     -2.7387400000      0.5010410000
C                 -1.1979180000     -0.8079350000      0.1199260000
C                 -2.4747570000     -1.4433940000      0.2068410000
Cl                -2.6520280000     -3.2071370000      0.5224650000
C                 -3.6791710000     -0.7921650000      0.0621530000
C                 -3.6928190000      0.6045760000     -0.1913200000
C                 -2.4983750000      1.2779000000     -0.2870140000
C                 -1.2457360000      0.6332470000     -0.1424510000
C                 -0.0725820000      1.4855940000     -0.2710220000
O                 -0.1960250000      2.7386250000     -0.5010080000
C                  1.1979370000      0.8077410000     -0.1199140000
H                  4.6023080000      1.3549800000     -0.1436740000
H                  4.6421870000     -1.1231730000      0.3063220000
H                  2.4548220000     -2.3444860000      0.4793860000
H                 -4.6024280000     -1.3547770000      0.1436630000
H                 -4.6420570000      1.1233850000     -0.3063240000
H                 -2.4546040000      2.3444570000     -0.4793770000





