%chk=163-new.chk
%nproc=8
%mem=30GB
#P UB3LYP/6-311++G(d,p) nosym opt freq

Oxidized

0 1
C         -1.79693        1.95938       -5.16746
C         -1.72477        0.62157       -5.55922
C         -1.36681       -0.35696       -4.63302
C         -1.51043        2.33250       -3.84312
C         -1.14560        1.34957       -2.90885
C         -1.07825        0.00135       -3.31464
C         -1.61509        3.78530       -3.47013
C         -0.83235        1.73371       -1.51696
C         -1.20517        4.16153       -2.05492
C         -0.84238        3.16972       -1.10415
C         -1.19276        5.54016       -1.69089
C         -0.84258        5.90754       -0.37094
C         -0.49994        4.92376        0.55311
C         -0.49057        3.57491        0.21001
O         -2.92792        4.20871       -3.69854
O         -0.54023        0.85636       -0.71957
H         -2.07888        2.70814       -5.89783
H         -1.94793        0.34370       -6.58125
H         -1.31146       -1.39443       -4.93662
H         -0.79999       -0.77646       -2.61456
Br         0.02384        2.37433        1.62484
N         -1.53353        6.54423       -2.65089
S         -0.82432        7.62922        0.18028
O          0.45288        8.44519       -0.62640
O         -2.34296        8.34005       -0.19013
O         -0.57023        7.69817        1.87762
H         -0.22958        5.20680        1.56178
H         -1.31008        6.30201       -3.62620
H         -1.22322        7.50034       -2.43955
H         -2.55903        6.62520       -2.70446









