%chk=203.chk
%nproc=8
%mem=30GB
#P UB3LYP/6-311++G(d,p) nosym opt freq

Oxidized

0 1
C                  4.6377420000      1.2618810000     -0.5928350000
C                  3.3359400000      0.5908220000     -0.2338280000
C                  3.3192400000     -0.6567680000      0.3838590000
C                  2.1270710000     -1.3170870000      0.7044880000
O                  2.1744790000     -2.5294340000      1.3057570000
C                  0.8822430000     -0.7209060000      0.3993250000
C                 -0.4155600000     -1.3916510000      0.7335440000
O                 -0.4415650000     -2.4581830000      1.3195250000
C                 -1.6748810000     -0.6984940000      0.3241060000
C                 -2.9534460000     -1.2727950000      0.5496510000
O                 -3.0540680000     -2.4854780000      1.1395620000
C                 -4.1126690000     -0.5979840000      0.1623290000
C                 -4.0402150000      0.6498490000     -0.4481570000
O                 -5.2174690000      1.2431150000     -0.7923400000
C                 -2.8011130000      1.2373200000     -0.6814570000
C                 -1.6432410000      0.5645000000     -0.3001760000
C                 -0.3468040000      1.2502210000     -0.5870630000
O                 -0.3289170000      2.3542600000     -1.1079630000
C                  0.9146510000      0.5431420000     -0.2269150000
C                  2.1116170000      1.1864480000     -0.5325210000
H                  5.4590190000      0.9122220000      0.0375360000
H                  4.5630460000      2.3469410000     -0.4869280000
H                  4.9061150000      1.0518130000     -1.6332360000
H                  4.2616940000     -1.1411920000      0.6334860000
H                  3.0988420000     -2.7841930000      1.4257430000
H                 -3.9840110000     -2.7298410000      1.2046240000
H                 -5.0866970000     -1.0404870000      0.3351990000
H                 -5.0441560000      2.0971990000     -1.2037130000
H                 -2.7066260000      2.2085730000     -1.1553510000
H                  2.0639390000      2.1591830000     -1.0078560000
















