%chk=342-an-PCM.chk
%nproc=8
%mem=30GB
#P UB3LYP/6-311++G(d,p) SCRF=(PCM,Solvent=n,n-DiMethylFormamide)

Reduced 

-3 1
C                 -3.4720500000      2.4439540000      1.1368210000
C                 -4.2054110000      2.3160240000      2.3044930000
C                 -3.8230030000      1.3684200000      3.2610850000
C                 -2.3194680000      1.6534510000      0.8934070000
C                 -1.9613420000      0.6591830000      1.8368880000
C                 -2.7250440000      0.5426890000      3.0031500000
C                 -1.5670870000      1.8774940000     -0.3462600000
C                 -0.4160150000      0.9949450000     -0.6101580000
C                 -0.0255090000     -0.0185120000      0.2979110000
C                 -0.7486460000     -0.2633290000      1.6335620000
C                  0.3043610000      1.1661240000     -1.8174870000
C                  1.4026580000      0.3753030000     -2.1187970000
C                  1.8025330000     -0.6149730000     -1.2180860000
C                  1.0849410000     -0.8018030000     -0.0352590000
O                 -1.9113650000      2.7620130000     -1.1654840000
S                  2.3572130000      0.6201380000     -3.6668600000
O                  1.3567630000      0.5847910000     -4.7710690000
O                  3.0283310000      1.9447270000     -3.5232190000
O                  3.3209930000     -0.5218890000     -3.7059520000
C                  0.2575500000     -0.0118160000      2.7907710000
C                 -1.2208620000     -1.7474160000      1.6938580000
H                 -3.7456240000      3.1651390000      0.3753090000
H                 -5.0772600000      2.9458370000      2.4797240000
H                 -4.3832540000      1.2554440000      4.1867840000
H                 -2.4598930000     -0.2025580000      3.7460700000
H                 -0.0329900000      1.9364550000     -2.4988950000
H                  2.6592770000     -1.2317300000     -1.4596470000
H                  1.4143830000     -1.5828530000      0.6431840000
H                  0.5868310000      1.0317000000      2.7864070000
H                  1.1406870000     -0.6481110000      2.6896540000
H                 -0.1910250000     -0.2256080000      3.7640950000
H                 -0.3805470000     -2.4374040000      1.5668220000
H                 -1.9490980000     -1.9494100000      0.9034530000
H                 -1.6870700000     -1.9819780000      2.6552920000





