%chk=238-rad-PCM.chk
%nproc=8
%mem=30GB
#P UB3LYP/6-311++G(d,p) SCRF=(PCM,Solvent=n,n-DiMethylFormamide)

Radical PCM in DMF 

-1 2
C                  5.7339860000     -5.2857440000      1.3779640000
C                  6.6891020000     -5.1870600000      0.3840760000
C                  6.5751350000     -4.2124540000     -0.6341150000
C                  4.6209520000     -4.4230570000      1.4093280000
C                  4.4949490000     -3.4402430000      0.3927460000
C                  5.4830610000     -3.3605860000     -0.6095510000
C                  3.6182410000     -4.5542970000      2.4842890000
C                  2.5243830000     -3.6236080000      2.4194070000
C                  2.4014730000     -2.6688900000      1.4323690000
C                  3.3528770000     -2.5053050000      0.3673670000
O                  3.7238420000     -5.4251580000      3.3905680000
O                  3.2305230000     -1.6278090000     -0.5313080000
H                  5.8114290000     -6.0293470000      2.1635540000
H                  7.5396070000     -5.8652250000      0.3819380000
H                  1.7769100000     -3.7068450000      3.2039050000
H                  1.5550820000     -1.9871190000      1.4262930000
C                  7.6269600000     -4.1148490000     -1.7152350000
H                  5.3528590000     -2.5969100000     -1.3697260000
H                  7.7090130000     -5.0497950000     -2.2826890000
H                  8.6186250000     -3.9082160000     -1.2947570000
H                  7.3913110000     -3.3153850000     -2.4219750000





