%chk=050-rad.chk
%nproc=8
%mem=30GB
#P UB3LYP/6-311++G(d,p) nosym  opt freq Int=Acc2E=11

Radical

-1 2
 C                  7.19486800    1.19193000    0.21176500
 C                  8.29304700    1.03322100    1.15423100
 C                  8.89278300   -0.19116300    1.35249000
 C                  8.45665500   -1.37895500    0.62892000
 C                  7.35330500   -1.22157100   -0.31290300
 C                  6.76462600    0.00751600   -0.51614600
 O                  6.62923800    2.31326600    0.02599400
 O                  9.01312600   -2.50437500    0.81093400
 C                  5.62395500    0.20942100   -1.50025000
 C                  6.90124800   -2.46317900   -1.04571700
 C                  8.74381600    2.26282300    1.90412600
 C                 10.02968500   -0.35793900    2.33112700
 C                  4.27301400    0.10633300   -0.83848500
 H                  5.71073800   -0.48436200   -2.33871500
 H                  5.71882300    1.22841800   -1.89310800
 H                  7.43806700   -3.32496000   -0.64827300
 H                  7.11091400   -2.40137800   -2.12197500
 H                  5.82450500   -2.63007400   -0.93552300
 H                  8.14561500    3.11789000    1.58796000
 H                  9.80264300    2.48550200    1.71992900
 H                  8.63388900    2.14008800    2.98946100
 H                  9.73396000   -0.07229900    3.34882000
 H                 10.88881000    0.27202700    2.06641600
 H                 10.35015700   -1.39995600    2.33879000
 C                  3.20585700   -0.62422700   -1.19342200
 C                  3.15886400   -1.54184100   -2.39304100
 C                  1.93458200   -0.56857700   -0.36862900
 C                  0.73096700    0.07632100   -1.08400900
 C                 -0.52097100    0.13407000   -0.19940500
 C                 -1.79914700    0.65909000   -0.88413600
 C                 -3.01770800    0.45520400    0.03876400
 C                 -4.38703500    0.71781100   -0.60289100
 C                 -5.55428700    0.40630200    0.34354200
 C                 -6.96356700    0.54356200   -0.26753700
 C                 -8.01892700   -0.02133400    0.70469500
 C                 -9.43781100   -0.15908900    0.13632100
 C                 -1.65154400    2.12420000   -1.32273400
 C                -10.40986000   -0.82006500    1.12255800
 C                -11.83075300   -1.07332600    0.58335700
 C                -12.57742700    0.22786100    0.25508000
 C                -12.64054000   -1.92061000    1.57524900
 H                  4.18526100    0.72932400    0.04957400
 H                  4.13600800   -1.66619200   -2.85897400
 H                  2.47198300   -1.16822100   -3.16288400
 H                  2.79547900   -2.53695800   -2.10527400
 H                  2.13343400   -0.01424400    0.55453600
 H                  1.65070900   -1.58812800   -0.06544900
 H                  0.49617300   -0.48540700   -1.99671200
 H                  1.02193300    1.08199900   -1.40429700
 H                 -0.31171400    0.75157200    0.68518900
 H                 -0.72329400   -0.87600000    0.18014000
 H                 -1.96313100    0.05055200   -1.78602300
 H                 -2.90340100    1.09546000    0.92454500
 H                 -3.00086500   -0.57744100    0.40971200
 H                 -4.48372300    0.10140300   -1.50712000
 H                 -4.44579100    1.75882400   -0.93326700
 H                 -5.48604500    1.05327600    1.22924000
 H                 -5.43653400   -0.62063500    0.71187200
 C                 -7.27447800    1.99329300   -0.67053800
 H                 -8.04794900    0.60968700    1.60391100
 H                 -7.68325600   -1.01011700    1.04170100
 H                 -9.39923900   -0.75650100   -0.78469400
 H                 -9.81868000    0.82513300   -0.15168100
 H                 -0.80389000    2.25687800   -1.99816300
 H                 -1.48615900    2.77119200   -0.45334700
 H                 -2.54186500    2.48589400   -1.84399300
 H                -10.48030000   -0.20585400    2.03123800
 H                 -9.98456500   -1.78034000    1.44081200
 H                -11.73379500   -1.64985900   -0.34726800
 H                -12.06277300    0.81666500   -0.50790400
 H                -12.67687100    0.85353700    1.14957100
 H                -13.58539100    0.01769700   -0.11568900
 H                -12.14423200   -2.87307100    1.78413900
 H                -13.63997300   -2.14093600    1.18762100
 H                -12.76325800   -1.39391700    2.52837800
 H                 -6.98959600   -0.07396600   -1.17753300
 H                 -7.25957800    2.64876100    0.20813200
 H                 -8.25868300    2.08361700   -1.13691300
 H                 -6.54313800    2.37904200   -1.38421100


















