%chk=339-an.chk
%nproc=8
%mem=30GB
#P UB3LYP/6-311++G(d,p) nosym opt freq SCF=YQC

Reduced

-2 1
  O   -0.0216175   -2.5115810    0.0202577
  C   -0.0220117   -1.3006220    0.1959370
  C    1.3172882   -0.6116252    0.3028612
  C    2.5009137   -1.3745100    0.1998891
  C    3.7570751   -0.7674533    0.2952096
  C    3.8578136    0.6095319    0.4945908
  C    2.7025733    1.3837488    0.5991564
  C    1.4442048    0.7786145    0.5041480
  S   -0.0229887    1.7496147    0.6350854
  O   -0.0176282    2.8664783   -0.4196176
  C   -1.4895782    0.7796619    0.4903463
  C   -2.7483526    1.3856948    0.5735130
  C   -3.9031104    0.6123026    0.4580801
  C   -3.8014836   -0.7647549    0.2596509
  C   -2.5449147   -1.3727086    0.1761514
  C   -1.3617660   -0.6106687    0.2902578
  H    2.4596535   -2.4452957    0.0452206
  H    4.6543502   -1.3674379    0.2141958
  H    4.8314637    1.0765327    0.5680473
  H    2.7855838    2.4521072    0.7538192
  H   -2.8320517    2.4541127    0.7273915
  H   -4.8770748    1.0799986    0.5223742
  H   -4.6983849   -1.3640989    0.1701966
  H   -2.5029656   -2.4435241    0.0218744
  O   -0.0289359    2.5296661    1.9584442



