%chk=061.chk
%nproc=8
%mem=30GB
#P UB3LYP/6-311++G(d,p) nosym opt freq

Oxidized

0 1
C         -1.18440       -0.05661        1.30261
C         -0.55037       -1.14877        0.93102
C          0.78893       -1.15661        0.32005
C          1.50419       -0.07152        0.07531
C          0.83255        1.21015        0.47723
C         -0.40987        1.16317        1.04056
O         -2.26599        0.05979        1.80539
O          2.59379       -0.09322       -0.42348
H         -1.03889       -2.10709        1.08144
H          1.20600       -2.12514        0.05686
C          1.60215        2.51806        0.22430
C          1.22778        4.00647        0.48766
C         -0.14581        4.30660        1.11383
C          2.29540        4.60605        1.43211
C          1.27972        4.75466       -0.86485
O          2.71171        2.38771       -0.27605
H         -0.96990        3.96965        0.44925
H         -0.28218        5.40328        1.23943
H         -0.22361        3.87258        2.13344
H          2.27983        4.08370        2.41330
H          2.11021        5.68815        1.60882
H          3.31611        4.50886        1.00315
H          0.52094        4.34114       -1.56423
H          2.27927        4.66061       -1.34173
H          1.07659        5.83953       -0.72976
H         -0.92853        2.03742        1.34368





