%chk=220-rad.chk
%nproc=8
%mem=30GB
#P UB3LYP/6-311++G(d,p) nosym opt freq

Radical

-1 2
C          4.94753       -2.57018        0.32203
C          5.74224       -1.70452       -0.43720
C          5.14094       -0.73598       -1.24380
C          3.54407       -2.47331        0.27969
C          2.93961       -1.49341       -0.53668
C          3.75007       -0.62880       -1.29466
C          2.69797       -3.39264        1.08340
C          1.21739       -3.28551        1.02630
C          0.61347       -2.30571        0.20953
C          1.45927       -1.38371       -0.59096
C          0.40673       -4.15489        1.77957
C         -0.78950       -2.21427        0.16151
C         -1.58201       -3.08338        0.91341
O          3.22152       -4.24096        1.79228
O          0.93567       -0.53398       -1.29813
H          5.42483       -3.31812        0.94256
H         -2.66010       -3.00005        0.86314
H          3.30876        0.13019       -1.92843
H          0.85503       -4.91252        2.41016
H         -1.27500       -1.47113       -0.45859
C         -0.98686       -4.05384        1.72345
S          7.52981       -1.83352       -0.38589
S         -2.00386       -5.17293        2.68668
O         -2.39581       -6.44986        1.92798
O         -3.37078       -4.56640        3.04029
N         -1.34922       -5.72311        4.23260
H         -0.64438       -6.46827        4.03517
H         -2.12703       -6.15424        4.78079
O          8.05213       -2.62692        0.82217
O          8.09413       -2.63371       -1.56974
N          8.44341       -0.32120       -0.37303
H          5.75078       -0.06405       -1.83436
H          9.39987       -0.51097       -0.74500
H          8.53705       -0.00753        0.61776







