%chk=091-rad.chk
%nproc=8
%mem=30GB
#P UB3LYP/6-311++G(d,p) nosym  opt freq

Radical

-1 2
C         -0.90249        2.54365        0.22152
C          0.48857        2.79350       -0.24729
C          1.20074        1.79809       -0.80246
C          0.61455        0.43953       -0.96396
C         -0.77280        0.17041       -0.47150
C         -1.47177        1.16102        0.11920
O         -1.56772        3.46432        0.69035
O          1.27474       -0.44840       -1.50060
O         -2.76340        0.94829        0.58943
O         -1.18132       -1.13437       -0.68563
C         -2.94083        1.30904        1.95896
C         -2.51983       -1.53223       -0.43900
C          2.61558        1.90867       -1.30166
C          0.97597        4.21742       -0.07739
C          1.60602        4.43278        1.27441
C          2.85271        4.85532        1.56548
C          3.90958        5.22918        0.56332
C          3.29249        5.00122        3.00049
H         -3.25646        2.35226        2.04384
H         -2.04036        1.12507        2.55553
H         -3.74558        0.68755        2.36351
H         -2.62680       -2.56675       -0.77990
H         -3.22790       -0.92457       -1.01090
H         -2.74213       -1.51845        0.63192
H          3.07236        2.88003       -1.10727
H          2.65057        1.74154       -2.38353
H          3.25194        1.16206       -0.81355
H          0.14361        4.92407       -0.18596
H          1.64797        4.48391       -0.89693
H          0.92985        4.23021        2.10709
H          3.55478        5.22487       -0.46879
H          4.75270        4.53377        0.62970
H          4.28007        6.23961        0.76745
H          2.50811        4.71382        3.70854
H          3.56482        6.04085        3.21005
H          4.16338        4.36666        3.19519










