%chk=040-an-PCM.chk
%nproc=8
%mem=30GB
#P UB3LYP/6-311++G(d,p) SCRF=(PCM,Solvent=n,n-DiMethylFormamide)

Reduced 

-2 1
C                  1.0440440000      1.1929830000      1.4438280000
C                 -0.1156830000      0.3524970000      1.4453120000
C                 -0.2976900000     -0.7224420000      0.5842310000
C                  0.7019840000     -1.0788980000     -0.3937000000
C                  1.8781140000     -0.2366090000     -0.4168860000
C                  2.0441850000      0.8430750000      0.4544030000
C                  3.2873640000      1.6995390000      0.4030120000
C                  2.9475000000     -0.5896870000     -1.4247260000
O                  1.1875720000      2.1834450000      2.2601780000
O                  0.5514970000     -2.0913770000     -1.1818800000
C                 -1.5333720000     -1.5983910000      0.6780780000
C                 -2.5342600000     -1.3716770000     -0.4287800000
C                 -3.8613860000     -1.1912620000     -0.3417610000
C                 -4.6536710000     -1.1521370000      0.9437990000
C                 -4.7092610000     -0.9788650000     -1.5769440000
H                 -0.8887080000      0.5989290000      2.1728700000
H                  3.4220380000      2.1839370000     -0.5770520000
H                  4.2056210000      1.1205520000      0.5886260000
H                  3.2012320000      2.4750390000      1.1681340000
H                  2.6105530000     -1.4570730000     -1.9971800000
H                  3.9086920000     -0.8362120000     -0.9461300000
H                  3.1540320000      0.2363090000     -2.1223430000
H                 -2.0005350000     -1.4657050000      1.6593540000
H                 -1.2029580000     -2.6456970000      0.5989150000
H                 -2.0812990000     -1.3831670000     -1.4177020000
H                 -4.0384090000     -1.3107410000      1.8306160000
H                 -5.4443220000     -1.9148250000      0.9420770000
H                 -5.1672130000     -0.1852800000      1.0552780000
H                 -4.1108430000     -1.0074800000     -2.4915090000
H                 -5.2331230000     -0.0107610000     -1.5420110000
H                 -5.4973560000     -1.7404880000     -1.6633570000





