%chk=122-an.chk
%nproc=8
%mem=30GB
#P UB3LYP/6-311++G(d,p) nosym opt freq SCRF=(PCM,Solvent=n,n-DiMethylFormamide)

Reduced

-2 1
Cl                -2.5166040000      2.8736260000      1.6226190000
C                 -2.3869310000      1.1905610000      0.9984920000
C                 -3.6064410000      0.5592540000      0.8698190000
C                 -3.6597310000     -0.7444700000      0.3078770000
C                 -2.5005190000     -1.3322150000     -0.1351110000
C                 -1.2383660000     -0.6919230000     -0.0290580000
C                 -0.0937170000     -1.3923890000     -0.5522190000
O                 -0.1815000000     -2.5751230000     -1.0639340000
C                  1.1511880000     -0.6708420000     -0.4874450000
C                  2.2949920000     -1.2896410000     -1.0558620000
C                  3.5258330000     -0.6811940000     -1.0707900000
C                  3.6626230000      0.6224740000     -0.5231060000
C                  2.5669200000      1.2332640000      0.0502150000
Cl                 2.8908490000      2.9193440000      0.5899710000
C                  1.2741260000      0.6449250000      0.1445720000
C                  0.1525780000      1.2570990000      0.8535970000
O                  0.2947620000      2.2389740000      1.6415110000
C                 -1.1411250000      0.6239200000      0.6070990000
H                 -4.5097740000      1.0747280000      1.1751150000
H                 -4.6178410000     -1.2520650000      0.2158580000
H                 -2.4915480000     -2.3155650000     -0.5932160000
H                  2.1336320000     -2.2740530000     -1.4822490000
H                  4.3901430000     -1.1724200000     -1.5132190000
H                  4.6062540000      1.1537280000     -0.5709350000


