%chk=240-an.chk
%nproc=8
%mem=30GB
#P UB3LYP/6-311++G(d,p) nosym opt freq

Reduced

-2 1
O                  2.8016790000     -2.8120950000     -1.3374630000
C                  2.2305430000     -1.7929550000     -0.8004790000
C                  0.8204110000     -1.6144500000     -0.7406710000
C                  0.1572640000     -0.5124690000     -0.1705910000
C                 -1.3645180000     -0.4936300000     -0.1870460000
C                 -1.9479890000      0.7241570000     -0.9381300000
C                 -3.4847390000      0.7169840000     -0.9521810000
C                 -4.0623560000      0.6472900000      0.4674750000
C                 -3.5065100000     -0.5653640000      1.2278520000
C                 -1.9695430000     -0.5772310000      1.2361650000
C                  0.8765190000      0.5692590000      0.4350530000
O                  0.3083720000      1.5921590000      0.9799810000
C                  2.3308950000      0.4386460000      0.3936520000
C                  3.1343370000      1.4561420000      0.9599810000
C                  4.5159690000      1.3887640000      0.9547920000
C                  5.1629380000      0.2717030000      0.3687230000
C                  4.4018650000     -0.7400400000     -0.1901730000
C                  2.9901440000     -0.6975720000     -0.1985850000
H                  0.2228320000     -2.4069520000     -1.1920380000
H                 -1.6926800000     -1.3946810000     -0.7296470000
H                 -1.5703710000      1.6258510000     -0.4452180000
H                 -1.5597400000      0.7306520000     -1.9642320000
H                 -3.8672120000      1.6066930000     -1.4708880000
H                 -3.8470030000     -0.1521830000     -1.5239610000
H                 -3.7784000000      1.5609520000      1.0072430000
H                 -5.1607930000      0.6226800000      0.4463300000
H                 -3.8788880000     -1.4829260000      0.7475800000
H                 -3.9015290000     -0.5776340000      2.2548520000
H                 -1.6050060000     -1.4907400000      1.7211120000
H                 -1.5837740000      0.2713430000      1.8099940000
H                  2.6091810000      2.2974630000      1.4017510000
H                  5.1051970000      2.1898810000      1.3982670000
H                  6.2500140000      0.2112550000      0.3607450000
H                  4.8628890000     -1.6109530000     -0.6468400000


