%chk=250-an.chk
%nproc=8
%mem=30GB
#P UB3LYP/6-311++G(d,p) nosym opt freq SCF=YQC

Reduced

-2 1
 C                  5.84918500   -5.71020300    0.49958400
 C                  5.96458200   -5.92586700   -0.86240500
 C                  5.22377700   -5.12681700   -1.76423800
 C                  5.00473300   -4.70627300    1.02110800
 C                  4.25474800   -3.89899700    0.10833300
 C                  4.38889500   -4.13702700   -1.27640100
 C                  4.91639000   -4.51163800    2.46821500
 C                  4.02528600   -3.46629300    2.90722700
 C                  3.29639400   -2.66860000    2.01044900
 C                  3.36195800   -2.84297700    0.58223300
 O                  5.59520800   -5.23194400    3.27621000
 O                  2.68824700   -2.12171700   -0.22827500
 H                  6.62152600   -6.70664400   -1.23917300
 C                  2.38285400   -1.56316200    2.49340000
 H                  5.31013600   -5.29122400   -2.83593800
 C                  3.92610800   -3.26114200    4.40210200
 C                  0.90268800   -1.98219900    2.61008700
 C                 -0.01584900   -0.83866600    3.05983000
 C                 -1.49276100   -1.23222800    3.19257100
 H                  6.40438800   -6.30555800    1.21692800
 H                  3.80592900   -3.50820500   -1.94132500
 H                  2.43689600   -0.74486100    1.76663400
 H                  2.71956400   -1.17539800    3.46207100
 H                  4.45472300   -4.07634700    4.89932600
 H                  2.88732700   -3.23945700    4.75410300
 H                  4.38903600   -2.31592300    4.72305100
 H                  0.81442200   -2.81959900    3.31454700
 H                  0.58054000   -2.35355100    1.63191400
 H                  0.07262700   -0.00916400    2.34540100
 H                  0.33742100   -0.44710100    4.02483300
 H                 -1.58117300   -2.06816000    3.89972500
 H                 -1.85115400   -1.61374800    2.22752700
 C                 -2.40316400   -0.08588000    3.65346500
 C                 -3.87945400   -0.47633600    3.79980800
 C                 -4.78362300    0.67084700    4.26972800
 C                 -6.25873700    0.27845100    4.42335500
 C                 -7.16011400    1.42554900    4.89802000
 H                 -2.31978000    0.74762500    2.94318400
 H                 -2.03703400    0.29966000    4.61475400
 H                 -3.96255600   -1.31268800    4.50679300
 H                 -4.24921100   -0.85647400    2.83822100
 H                 -4.70466300    1.50636200    3.56148100
 H                 -4.41131300    1.05357300    5.22942000
 H                 -6.33748600   -0.55800200    5.13062100
 H                 -6.63321300   -0.10132000    3.46340500
 H                 -7.08621400    2.26236000    4.19122800
 H                 -6.78709200    1.80749300    5.85733400
 C                 -8.63417200    1.02967100    5.05503000
 C                 -9.53258000    2.17502800    5.53101900
 H                 -8.70880800    0.19252600    5.76097500
 H                 -9.00884700    0.64852800    4.09636800
 H                 -9.21411200    2.55525700    6.50846700
 H                -10.57582300    1.85643900    5.63185700
 H                 -9.51697200    3.01616200    4.82842300


