%chk=281-rad.chk
%nproc=8
%mem=30GB
#P UB3LYP/6-311++G(d,p) nosym  opt freq SCRF=(PCM,Solvent=n,n-DiMethylFormamide)

Radical

-1 2
 C                  3.28904100   -0.26393600   -0.10178700
 C                  1.79274200   -0.41770600   -0.14536000
 C                  0.96960000    0.73555400    0.10594400
 O                  1.47635800    1.85200100    0.35364700
 C                 -0.49319500    0.56588000    0.06434800
 C                 -1.33891700    1.66451900    0.30638400
 C                 -2.71743900    1.53044000    0.27458900
 C                 -3.29483400    0.27718800   -0.00463700
 C                 -2.48547900   -0.81809600   -0.24698200
 C                 -1.07921600   -0.69951800   -0.21827700
 C                 -0.22980600   -1.84304200   -0.47217300
 O                 -0.64784600   -3.01248400   -0.73387700
 C                  1.19349900   -1.62930000   -0.42146300
 O                  1.93197600   -2.74879900   -0.67229900
 H                  3.78970700   -1.22437200   -0.22255800
 H                  3.60765800    0.18047900    0.84587400
 H                  3.64066300    0.40799700   -0.89227400
 H                 -0.88208100    2.62332900    0.51969700
 H                 -3.35202600    2.38922700    0.46438700
 H                 -4.37407800    0.17154800   -0.02973100
 H                 -2.91703200   -1.78821200   -0.46339800
 H                  1.25026500   -3.43656900   -0.82447700















