%chk=253-rad.chk
%nproc=24
%mem=90GB
#P UB3LYP/6-311++G(d,p) nosym opt freq Int=Acc2E=11 SCRF=(PCM,Solvent=n,n-DiMethylFormamide)

Radical

-1 2
 C                 -5.62599200   -2.80753000    3.80428400
 C                 -6.28303100   -3.28159400    2.68214800
 C                 -7.19652100   -2.45401200    2.00233400
 C                 -5.85533100   -1.50190900    4.28565200
 C                 -6.77568000   -0.66847400    3.60064400
 C                 -7.43474700   -1.16939700    2.45918600
 C                 -5.14633700   -1.02001100    5.47843900
 C                 -5.43511500    0.32618800    5.92309500
 C                 -6.33036300    1.14684900    5.24277500
 C                 -7.04291500    0.69803100    4.06836400
 O                 -4.31665700   -1.76901500    6.08102600
 O                 -7.86741300    1.44238400    3.45359200
 H                 -6.09509600   -4.28890800    2.32595200
 H                 -7.71214200   -2.82364700    1.12235000
 C                 -4.71017100    0.81616300    7.15362300
 H                 -4.91942000   -3.43188800    4.33780700
 H                 -8.13486500   -0.52012200    1.94742800
 H                 -3.94209200    1.55725700    6.89996000
 H                 -4.21331300   -0.01737200    7.64792400
 H                 -5.39305900    1.29268100    7.86111500
 C                 -6.61509500    2.56273100    5.71492600
 C                 -7.72581000    2.62137500    6.73999600
 C                 -7.75597600    3.27778500    7.90990900
 C                 -8.98828800    3.20386500    8.79003000
 C                 -9.73590400    4.55061300    8.95645600
 C                -10.91743700    4.43169500    9.87999000
 C                -12.21828700    4.62698100    9.61470200
 C                 -6.62311800    4.11918900    8.44713500
 C                -13.25281800    4.43636200   10.70668700
 C                -14.19862500    3.22924100   10.48395100
 C                -15.23917500    3.11786300   11.56469000
 C                -15.43578000    2.12524600   12.44604300
 C                -12.76322600    5.05071200    8.27196600
 C                -14.61900200    0.85670400   12.50220100
 C                -16.55104800    2.22736000   13.46814700
 C                -16.06205100    2.37810800   14.93093000
 C                -17.20471200    2.41910900   15.90862300
 C                -17.57588300    3.41389600   16.72915900
 C                -16.85962700    4.73768800   16.84745800
 C                -18.78306200    3.24460500   17.63099300
 C                -19.99258300    4.13422600   17.24677200
 C                -21.13671200    3.98418800   18.21201900
 C                -22.37051200    3.50630100   17.98822500
 C                -22.87244100    3.02788700   16.64712500
 C                -23.37369600    3.43279000   19.12279100
 C                -23.73161600    1.99069100   19.56342100
 C                -24.77659700    1.97136900   20.64554100
 C                -24.67103700    1.53619000   21.91050800
 C                -23.42335700    0.92891400   22.50529700
 C                -25.86099300    1.62535100   22.84607100
 C                -25.69591800    2.66184000   23.98654900
 C                -26.87108200    2.66376700   24.92587700
 C                -27.75632500    3.64353600   25.16467700
 C                -27.71786000    5.00755100   24.51867000
 C                -28.88615200    3.42268400   26.15145800
 H                 -6.92608800    3.14088000    4.83875400
 H                 -5.70425800    3.02414800    6.09903000
 H                 -8.61205100    2.05091000    6.46550400
 H                 -8.69737200    2.84714700    9.78774100
 H                 -9.68508700    2.46568500    8.38181000
 H                -10.03038900    4.91543400    7.96972700
 H                 -9.04162500    5.29234500    9.36969000
 H                -10.66019200    4.13502500   10.89749300
 H                 -5.70420500    4.01089800    7.87127000
 H                 -6.40618200    3.85101500    9.48749400
 H                 -6.88486500    5.18308200    8.44785300
 H                -13.86579600    5.34437000   10.78635100
 H                -12.74865000    4.31046800   11.66951400
 H                -13.59788100    2.32013700   10.40765000
 H                -14.70721600    3.34973100    9.51985900
 H                -15.90937500    3.97580200   11.62925200
 H                -11.98295200    5.24073700    7.53575300
 H                -13.36012500    5.96439900    8.37562500
 H                -13.43144100    4.28878700    7.85699900
 H                -13.86789900    0.79757000   11.71522500
 H                -15.27192600   -0.01937700   12.41277600
 H                -14.10108300    0.76095500   13.46233500
 H                -17.18153800    1.33013000   13.40595400
 H                -17.19169600    3.08060700   13.22616000
 H                -15.43759600    3.27142000   15.00333600
 H                -15.41869000    1.52576200   15.18015500
 H                -17.80711700    1.51026900   15.92991900
 H                -15.97267800    4.80094300   16.21791000
 H                -16.55080300    4.91069600   17.88503800
 H                -17.51797100    5.56988400   16.57686100
 H                -18.49737500    3.47822500   18.66542900
 H                -19.10406500    2.19872800   17.62075600
 H                -20.29391000    3.89584500   16.22425300
 H                -19.67458600    5.18366300   17.24240900
 H                -20.90761000    4.30351600   19.22930700
 H                -22.14014200    3.14865700   15.84949900
 H                -23.77700400    3.57769300   16.36197400
 H                -23.15118700    1.96947500   16.68328600
 H                -24.29924700    3.94093500   18.82033200
 H                -22.98509300    3.97474000   19.99011600
 H                -22.81767800    1.48104400   19.87677600
 H                -24.11562800    1.43919100   18.69694300
 H                -25.74072600    2.38167600   20.34317400
 H                -22.60522200    0.84782200   21.79034800
 H                -23.63645200   -0.07498200   22.89090200
 H                -23.06310200    1.51767200   23.35544300
 H                -26.04090300    0.64049600   23.29757300
 H                -26.75830800    1.87892600   22.27380300
 H                -25.53161700    3.64730900   23.54494600
 H                -24.79173600    2.42060600   24.55807200
 H                -27.01170800    1.72786500   25.46773200
 H                -26.86393800    5.14196600   23.85549300
 H                -27.67699500    5.78986500   25.28556700
 H                -28.62441000    5.19400300   23.93330300
 H                -28.88951900    4.23898300   26.88619300
 H                -28.71040400    2.49745000   26.70826700
 C                -30.29118800    3.34593200   25.50162100
 C                -31.38263400    3.19701700   26.52627300
 C                -32.22326200    2.16871400   26.71742100
 C                -32.24690300    0.91515800   25.87640600
 C                -33.24791500    2.22242700   27.83381100
 C                -32.96921500    1.23891900   28.99895900
 C                -34.04997200    1.27729800   30.04482800
 C                -33.96900300    1.67267900   31.32460800
 C                -32.70315100    2.15211000   31.99327000
 C                -35.20079200    1.64349500   32.20834800
 C                -35.73558100    3.04407600   32.60040200
 C                -36.91213900    2.96225400   33.53447100
 C                -38.17234100    3.37464400   33.33340400
 C                -38.67328600    4.04027400   32.07574400
 C                -39.22426000    3.19686700   34.40255000
 H                -30.30085100    2.52545600   24.78055200
 H                -30.46998200    4.26533000   24.93143400
 H                -31.47884600    4.04638300   27.20351100
 H                -31.52192800    0.93274300   25.06328400
 H                -33.24185500    0.76965600   25.43959600
 H                -32.04203800    0.02729500   26.48378700
 H                -34.24206700    1.99971700   27.42374400
 H                -33.29404900    3.23719900   28.24008900
 H                -31.98907600    1.46644400   29.42408600
 H                -32.90713100    0.22040800   28.59758500
 H                -35.02701600    0.94693800   29.69057900
 H                -31.83427700    2.11836700   31.33673800
 H                -32.48448000    1.53966000   32.87586600
 H                -32.80942800    3.18223500   32.34921900
 H                -34.97170200    1.09114500   33.12959800
 H                -36.00118600    1.09523600   31.70254500
 H                -35.98294600    3.59496600   31.69005100
 H                -34.93404300    3.60514800   33.09575300
 H                -36.69183200    2.49218600   34.49338000
 H                -37.90852900    4.14426100   31.30665800
 H                -39.06466700    5.03926900   32.30155000
 H                -39.50735200    3.47067600   31.64961500
 H                -38.82050300    2.71201200   35.29386300
 H                -40.06078900    2.59272100   34.03166700
 H                -39.64745100    4.16383800   34.69973700






















