%chk=068-an.chk
%nproc=8
%mem=30GB
#P UB3LYP/6-311++G(d,p) nosym opt freq

Reduced

-2 1
C                 -0.2921520000      1.7928540000     -1.2444280000
C                 -1.2554040000      1.6739670000     -0.1496530000
C                 -1.0290840000      0.9495130000      0.9711320000
C                  0.1687280000      0.1488190000      1.1956780000
C                  1.1509140000      0.1669490000      0.1290030000
C                  0.9368260000      1.1148600000     -0.9882810000
O                 -0.5950160000      2.4743950000     -2.2680890000
O                  0.2074180000     -0.5410280000      2.2710910000
S                  2.2531670000      1.7211400000     -2.0426440000
C                  3.8264090000      1.4784950000     -1.1237150000
C                  4.0046860000      2.0872700000      0.1156830000
C                  4.8860640000      0.8409550000     -1.7593540000
C                  6.1435380000      0.8251570000     -1.1568580000
C                  5.2599610000      2.0526640000      0.7254630000
C                  6.3335660000      1.4286640000      0.0888240000
O                  2.2064920000      3.2071830000     -2.0997320000
O                  2.4345670000      1.0488060000     -3.3509740000
H                 -2.1799060000      2.2335900000     -0.2855390000
H                 -1.7662470000      0.8974330000      1.7704370000
H                  3.1667650000      2.5813010000      0.5916980000
H                  4.6956300000      0.3584650000     -2.7098710000
H                  6.9726540000      0.3259400000     -1.6509180000
H                  5.3973160000      2.5125840000      1.6998110000
H                  7.3100430000      1.4036060000      0.5648040000
C                  2.1617720000     -0.8715090000     -0.0468410000
O                  2.6920480000     -1.0217300000     -1.1638360000
C                  2.6744950000     -1.8642620000      1.0648760000
C                  3.0715850000     -1.1319930000      2.3625570000
C                  1.6072600000     -2.9475390000      1.3363530000
C                  3.9357880000     -2.5757560000      0.5279850000
H                  2.2079330000     -0.6230130000      2.7901290000
H                  3.8701170000     -0.4101770000      2.1609920000
H                  3.4529600000     -1.8591700000      3.0953530000
H                  0.7013470000     -2.4965800000      1.7424980000
H                  1.9943050000     -3.6795000000      2.0608820000
H                  1.3740020000     -3.4835040000      0.4088690000
H                  4.7311460000     -1.8617920000      0.3002550000
H                  3.7236650000     -3.1292880000     -0.3885550000
H                  4.3018530000     -3.2757590000      1.2917030000


