%chk=137-an-PCM.chk
%nproc=8
%mem=30GB
#P UB3LYP/6-311++G(d,p) SCRF=(PCM,Solvent=n,n-DiMethylFormamide)

Reduced 

-2 1
C                  3.7245590000      2.2157790000     -0.4867190000
O                  2.3778470000      1.8227940000     -0.3932780000
C                  2.0808070000      0.4897450000     -0.2385720000
C                  3.0942880000     -0.4565910000     -0.1690120000
C                  2.7769690000     -1.8308180000     -0.0099790000
C                  1.4666140000     -2.2277640000      0.0554360000
C                  0.3990620000     -1.2941790000     -0.0233770000
C                 -0.9442500000     -1.8352640000      0.0501170000
O                 -1.1779610000     -3.0926280000      0.1621170000
C                 -2.0069200000     -0.8573340000      0.0037230000
C                 -3.3578220000     -1.2857300000      0.0786940000
C                 -4.4100390000     -0.3946460000      0.0403410000
C                 -4.1474650000      0.9970650000     -0.0786220000
C                 -2.8396970000      1.4390530000     -0.1501770000
C                 -1.7391290000      0.5517110000     -0.1106980000
C                 -0.3876560000      1.1131870000     -0.1918330000
O                 -0.2264310000      2.3692330000     -0.2917060000
C                  0.6892860000      0.1288360000     -0.1528430000
H                  4.2478490000      1.7435440000     -1.3324270000
H                  4.2939270000      1.9974020000      0.4298410000
H                  3.7145970000      3.2971900000     -0.6439570000
H                  4.1329630000     -0.1573800000     -0.2212190000
H                  3.5842840000     -2.5584020000      0.0491280000
H                  1.1853020000     -3.2687100000      0.1687730000
H                 -3.5214330000     -2.3550660000      0.1686140000
H                 -5.4362730000     -0.7538280000      0.0996270000
H                 -4.9706270000      1.7084520000     -0.1124910000
H                 -2.6026520000      2.4943500000     -0.2410200000





