%chk=307-rad-PCM.chk
%nproc=8
%mem=30GB
#P UB3LYP/6-311++G(d,p) SCRF=(PCM,Solvent=n,n-DiMethylFormamide)

Radical PCM in DMF 

-1 2
C                 -3.3914420000     -0.7196160000     -0.3756110000
C                 -1.9822180000     -0.2795940000     -0.0837110000
C                 -1.7117580000      0.7086790000      0.8421110000
C                 -0.3937130000      1.1585960000      1.1518980000
O                 -0.1742480000      2.0807750000      2.0188300000
C                  0.7068100000      0.5227380000      0.4370630000
C                  2.0490480000      0.9230290000      0.6967680000
O                  2.3075830000      1.8899600000      1.6031010000
C                  3.1023690000      0.3179950000      0.0159720000
C                  2.8388980000     -0.6865500000     -0.9261400000
C                  1.5412130000     -1.0922320000     -1.1951990000
C                  0.4595700000     -0.4966410000     -0.5208420000
C                 -0.9175460000     -0.9359650000     -0.8148550000
O                 -1.1569640000     -1.8384250000     -1.6609800000
H                 -4.1115430000     -0.1604030000      0.2282590000
H                 -3.5168660000     -1.7895120000     -0.1770710000
H                 -3.6334160000     -0.5814480000     -1.4349250000
H                 -2.5217780000      1.1917050000      1.3826730000
H                  1.3976220000      2.1634110000      1.9513320000
H                  4.1148690000      0.6410430000      0.2321790000
H                  3.6696400000     -1.1507580000     -1.4505780000
H                  1.3238680000     -1.8667850000     -1.9202740000





