%chk=310-an.chk
%nproc=8
%mem=30GB
#P UB3LYP/6-311++G(d,p) nosym opt freq

Reduced

-2 1
O                 -2.1875350000     -2.0968160000      0.2074190000
C                 -1.6755620000     -0.8374440000      0.1000150000
C                 -2.4994020000      0.2712910000      0.0326640000
C                 -1.9537740000      1.5804290000     -0.0793720000
C                 -0.5857440000      1.7775510000     -0.1237860000
O                 -0.0522020000      3.0283940000     -0.2310890000
C                  0.3013150000      0.6489120000     -0.0562030000
C                  1.7337230000      0.8628440000     -0.1031810000
O                  2.2228270000      2.0956410000     -0.2080370000
C                  2.5284030000     -0.2867190000     -0.0320360000
C                  1.9849660000     -1.5904170000      0.0795050000
C                  0.6084480000     -1.8365900000      0.1277660000
O                  0.0767580000     -3.0519500000      0.2322550000
C                 -0.2486360000     -0.6705560000      0.0567400000
H                 -1.3161370000     -2.6979760000      0.2347800000
H                 -3.5765850000      0.1236840000      0.0669960000
H                 -2.6078400000      2.4480040000     -0.1318720000
H                  0.9874620000      2.8351790000     -0.2384170000
H                  3.6091320000     -0.1517300000     -0.0654340000
H                  2.6503830000     -2.4517290000      0.1312870000


