%chk=044-an.chk
%nproc=8
%mem=30GB
#P UB3LYP/6-311++G(d,p) nosym opt freq

Reduced

-2 1
C         -0.91753        2.04096        0.00094
C         -2.14395        1.23155       -0.00118
C         -2.11171       -0.06787       -0.00150
C         -0.84681       -0.81714        0.00025
C          0.44147       -0.04212        0.00182
C          0.40473        1.33265        0.00215
O         -0.98545        3.26057        0.00139
O         -0.86049       -2.03836        0.00012
C          1.65130        2.19267        0.00353
C          1.75009       -0.80113        0.00281
O         -3.35990       -0.55526       -0.00377
O         -3.41450        1.65706       -0.00324
C         -4.22575        0.53021       -0.00515
H          2.59726        1.61829        0.00417
H          1.64989        2.83840        0.90659
H          1.65145        2.83882       -0.89924
H          1.59492       -1.89947        0.00235
H          2.33477       -0.54532        0.91147
H          2.33627       -0.54482       -0.90475
H         -4.85872        0.51481       -0.91776
H         -4.86236        0.51429        0.90490







