%chk=082.chk
%nproc=8
%mem=30GB
#P UB3LYP/6-311++G(d,p) nosym opt freq

Oxidized

0 1
C     2.7148122697    0.2407044700    0.6936649676
O     1.8325929488   -0.2591853512   -0.2948944188
C     0.4658683829   -0.1735249465   -0.2349739418
C    -0.1258699869    1.0087583161   -0.2674756134
C    -1.5657665653    1.1304362492   -0.2059515348
O    -2.0845984041    2.2729986502   -0.2398553740
C    -2.4365907915   -0.0397957453   -0.1052672648
C    -1.8457843521   -1.2234355062   -0.0726541953
C    -0.3985806243   -1.3516856200   -0.1341832580
O     0.1283650286   -2.4831006549   -0.1012325766
H     2.4790589887   -0.2807650187    1.6579927364
H     3.7443511698   -0.0817134965    0.3627587339
H     2.6539196157    1.3354732118    0.8139285083
H     0.4641271194    1.9142613638   -0.3414480747
H    -3.5163097201    0.0723297926   -0.0602123361
H    -2.5095950793   -2.0817557145    0.0023628104


