%chk=219-an.chk
%nproc=8
%mem=30GB
#P UB3LYP/6-311++G(d,p) nosym opt freq

Reduced

-2 1
C          5.00064       -2.30578        0.48869
C          5.77369       -1.42198       -0.26620
C          5.16288       -0.54939       -1.16973
C          3.60094       -2.32727        0.34964
C          2.98100       -1.45022       -0.56609
C          3.77237       -0.56561       -1.32219
C          2.77480       -3.25849        1.15987
C          1.29609       -3.25871        1.01888
C          0.67628       -2.38444        0.10043
C          1.50352       -1.46334       -0.72027
C          0.50257       -4.12098        1.79792
C         -0.72502       -2.39222       -0.02416
C         -1.50054       -3.25184        0.75588
O          3.31276       -4.02067        1.95114
O          0.96621       -0.70789       -1.51840
H          5.49821       -2.96984        1.18440
H         -2.57789       -3.24287        0.64988
H          3.31034        0.11459       -2.02667
H          0.96323       -4.79554        2.50881
H         -1.22250       -1.73075       -0.72238
C         -0.88981       -4.11503        1.66896
S          6.16444        0.58924       -2.12684
H          6.84952       -1.41536       -0.14479
S         -1.88702       -5.21120        2.67758
O         -2.28520       -6.51287        1.96570
O         -3.25026       -4.59726        3.03275
N         -1.20755       -5.70810        4.23130
H         -0.53776       -6.48989        4.05437
H         -1.98368       -6.07587        4.82603
O          5.37214        1.79040       -2.66655
O          7.23870        1.27674       -1.27025
N          7.03532       -0.06251       -3.51741
H          7.63035        0.70030       -3.91118
H          6.32849       -0.32226       -4.24080








