%chk=198-an.chk
%nproc=8
%mem=30GB
#P UB3LYP/6-311++G(d,p) nosym opt freq

Reduced

-2 1
N                  3.0912990000     -1.2629260000      1.3279160000
C                  2.6444560000     -0.5391410000      0.2008040000
C                  3.5717450000     -0.0839310000     -0.7145480000
C                  3.1624520000      0.7073670000     -1.8217580000
C                  1.8514560000      1.0691950000     -1.9905910000
O                  1.5133760000      1.8596810000     -3.0895760000
C                  0.8281650000      0.6368640000     -1.0708140000
C                 -0.5288320000      0.9939520000     -1.2026850000
O                 -0.9248330000      1.8285070000     -2.2009210000
C                 -1.5101110000      0.4926340000     -0.2991660000
C                 -2.9071980000      0.9196180000     -0.4714140000
O                 -3.2511140000      1.7466950000     -1.4280710000
C                 -3.8451390000      0.3980320000      0.4262860000
C                 -3.4734040000     -0.5064420000      1.4396440000
C                 -2.1681740000     -0.9106950000      1.6383420000
N                 -1.8933260000     -1.8216910000      2.7194770000
C                 -1.1355410000     -0.4174700000      0.7582210000
C                  0.2546560000     -0.7994920000      0.9251590000
O                  0.5984430000     -1.6524130000      1.8619220000
C                  1.2364640000     -0.2335980000      0.0381630000
H                  3.8403540000     -1.9027450000      1.0968930000
H                  2.2720150000     -1.7058000000      1.7779050000
H                  4.6267120000     -0.2987290000     -0.5592240000
H                  3.9040960000      1.0416000000     -2.5490110000
H                  2.3522640000      2.1111640000     -3.4890480000
H                 -1.9398020000      1.9295890000     -2.0494910000
H                 -4.8825610000      0.6991740000      0.3020300000
H                 -4.2382940000     -0.9176530000      2.0988340000
H                 -0.8773840000     -1.9786380000      2.7233380000
H                 -2.1722390000     -1.4027080000      3.6013830000


