%chk=333-an-PCM.chk
%nproc=8
%mem=30GB
#P UB3LYP/6-311++G(d,p) SCRF=(PCM,Solvent=n,n-DiMethylFormamide)

Reduced 

-2 1
C                 -1.26540300    2.44866100   -2.90419000
 C                 -2.14932300    2.27359400   -1.78494600
 C                  0.09356000    2.16332300   -2.53657100
 C                  0.46218700    1.49461400   -1.37296000
 C                 -0.53430300    0.90367900   -0.49819300
 C                 -1.80139100    1.60269300   -0.61682800
 C                 -0.28652200   -0.22040600    0.45363700
 C                 -1.31452900   -0.82412300    1.28253400
 C                  0.98171100   -0.90490800    0.62793600
 C                  1.28416300   -1.57092800    1.81198400
 C                  0.35226200   -1.76151700    2.88830800
 C                 -0.99252700   -1.49395200    2.45870000
 O                 -1.61552900    2.95354600   -4.02236000
 O                  0.65666000   -2.26459700    4.02059200
 C                  1.90026900    1.76014600   -0.87920800
 C                  1.94842300    3.15687100   -0.21505500
 C                  3.00005000    1.68388700   -1.95478800
 C                  1.86669800   -1.26573200   -0.58406500
 C                  1.42653000   -2.64558500   -1.12865000
 C                  3.38318900   -1.29846500   -0.31674000
 C                 -2.73100800   -1.08421600    0.72544700
 C                 -3.86633100   -1.08318700    1.76581400
 C                 -2.73210400   -2.44240900   -0.01494200
 C                 -2.63217700    1.95556500    0.63606300
 C                 -2.11295200    3.29221800    1.21632000
 C                 -4.15267200    2.06455500    0.41812800
 H                 -3.09896000    2.79675800   -1.85182200
 H                  0.85397000    2.60655100   -3.17369400
 H                  2.23542000   -2.08485100    1.91962100
 H                 -1.77529100   -1.94518800    3.06171400
 H                  2.14218600    1.05655000   -0.08784300
 H                  2.94601700    3.35393300    0.20262500
 H                  1.22131700    3.21893800    0.59730200
 H                  1.71256200    3.94250700   -0.93957200
 H                  2.97829200    0.73597700   -2.49754600
 H                  3.99129300    1.78938600   -1.49626500
 H                  2.89206300    2.48650000   -2.69038200
 H                  1.67351300   -0.56339200   -1.38979200
 H                  1.58212000   -3.42890100   -0.38031700
 H                  1.99652300   -2.90625500   -2.03177600
 H                  0.36575400   -2.63347900   -1.38766200
 H                  3.64793000   -2.10931700    0.36835100
 H                  3.74245200   -0.36566700    0.12422100
 H                  3.93278000   -1.46544200   -1.25162100
 H                 -2.96248200   -0.34093300   -0.03268700
 H                 -4.83986100   -1.16479900    1.26640300
 H                 -3.87048900   -0.17076200    2.36667000
 H                 -3.77906500   -1.93016400    2.45302400
 H                 -3.71640900   -2.64013600   -0.46253800
 H                 -2.49031500   -3.26070500    0.67076400
 H                 -1.98941000   -2.44135100   -0.81548400
 H                 -2.45056200    1.21425400    1.40959100
 H                 -2.65373500    3.55217000    2.13734400
 H                 -2.24060400    4.10630400    0.49572400
 H                 -1.05039700    3.21677500    1.45659900
 H                 -4.66509200    2.20774500    1.37769200
 H                 -4.56415100    1.16944100   -0.05412900
 H                 -4.40464500    2.91844400   -0.21796300





