%chk=041-an.chk
%nproc=8
%mem=30GB
#P UB3LYP/6-311++G(d,p) nosym opt freq SCF=YQC Int=Acc2E=11

Reduced

-2 1
 C                 16.97559000    1.15208600    4.10838800
 C                 16.30852400    1.81228600    3.01029100
 C                 16.89006800    2.01562500    1.78234900
 C                 18.25178500    1.57100100    1.51903000
 C                 18.93843300    0.89839200    2.61491400
 C                 18.33733300    0.69833000    3.84550000
 O                 16.40486600    0.98297900    5.22989200
 O                 18.80288000    1.76506700    0.39004800
 C                 19.06117800    0.00241400    4.97110900
 C                 20.34745700    0.42647500    2.34911400
 H                 15.29548000    2.15226900    3.20744900
 H                 19.35143200   -1.02208700    4.70093300
 H                 18.40621600   -0.03895200    5.84274600
 H                 19.98609900    0.52538700    5.24986000
 H                 20.62088500    0.67362900    1.32249400
 H                 20.44829500   -0.65808200    2.48987600
 H                 21.07126500    0.89759500    3.02801000
 C                 16.18464200    2.73433400    0.64491200
 C                 14.68797400    2.63013000    0.66375000
 C                 13.76740100    3.60156700    0.75062200
 C                 12.28949400    3.26103100    0.74687300
 C                 11.60072000    3.42064300    2.12690100
 C                 10.11641500    3.19221800    2.06282300
 C                  9.38563900    2.22093900    2.62944200
 C                  7.88349300    2.17999800    2.42742700
 C                  7.37758600    0.97518000    1.59462300
 C                  5.89410300    1.03310800    1.35384200
 C                  4.93958700    0.18267000    1.75847800
 C                  3.48711800    0.44168800    1.41068500
 C                 14.09070600    5.07288700    0.85927300
 C                  9.95332300    1.12787800    3.50248800
 C                  5.19916000   -1.06150400    2.57412000
 C                  2.86972200   -0.58645400    0.43014800
 C                  1.40684400   -0.33728800    0.18436400
 C                  0.78511800   -0.03276600   -0.96386500
 C                 -0.71585800    0.17448700   -0.98881600
 C                 -1.49422700   -0.88778700   -1.80518600
 C                 -2.98488300   -0.71144000   -1.70478100
 C                 -3.86358300   -0.41961600   -2.67487400
 C                 -5.33956200   -0.29144200   -2.35674200
 C                 -6.23265100   -1.36669100   -3.02520700
 C                 -7.67222900   -1.26687000   -2.59996700
 C                 -8.74933000   -0.98170000   -3.34630100
 C                -10.12678100   -0.93846000   -2.71642800
 C                -11.10126800   -2.02474700   -3.23671100
 C                -12.41943800   -2.01254800   -2.51192100
 C                -13.64213800   -1.75335900   -2.99807300
 C                  1.48382300    0.13128800   -2.29250300
 C                 -3.49135200   -0.18867100   -4.12029400
 C                 -8.70420400   -0.67575400   -4.82480800
 C                -13.92751700   -1.39055300   -4.43632500
 C                -14.85317100   -1.80325000   -2.08877600
 C                -15.86822100   -2.92059100   -2.43723800
 C                -16.99489800   -3.00592600   -1.44427700
 C                -18.30682700   -2.81045900   -1.64277300
 C                -18.92121900   -2.43084300   -2.96940600
 C                -19.28268800   -2.95434000   -0.49288500
 C                -20.29458800   -4.11679400   -0.65305500
 C                -21.16121300   -4.29063900    0.56378300
 C                -22.49124300   -4.16833700    0.67222400
 C                -23.42474200   -3.82056700   -0.46063000
 C                -23.18084800   -4.37403100    1.99981300
 H                 16.56889900    2.29824800   -0.28547500
 H                 16.51313000    3.78027300    0.61530700
 H                 14.31569100    1.60704900    0.60250400
 H                 12.15145000    2.22881600    0.41096700
 H                 11.76435900    3.89944900    0.02089300
 H                 11.77845800    4.43834500    2.49594300
 H                 12.08653500    2.74871200    2.83666800
 H                  9.57664700    3.92153500    1.45636400
 H                  7.55852800    3.10424700    1.93828200
 H                  7.38285700    2.15139600    3.40481200
 H                  7.66259100    0.04052100    2.08094600
 H                  7.89809000    0.99050300    0.62844300
 H                  5.56740900    1.90334400    0.78344700
 H                  3.38632500    1.44040900    0.97582800
 H                  2.88917900    0.44054600    2.33285400
 H                 15.16332600    5.25999200    0.89852800
 H                 13.64634800    5.51519200    1.75867800
 H                 13.68118100    5.62534600    0.00261400
 H                 11.02092600    1.24057300    3.68491600
 H                  9.80035200    0.14029100    3.05311900
 H                  9.44555400    1.11178200    4.47469300
 H                  6.23074600   -1.13549000    2.91702500
 H                  4.97594000   -1.96891400    2.00185500
 H                  4.54922000   -1.08075900    3.45695800
 H                  2.98398700   -1.59352000    0.85062600
 H                  3.44333100   -0.57682500   -0.49949600
 H                  0.78471200   -0.41229500    1.07698200
 H                 -0.94206600    1.16213700   -1.41215800
 H                 -1.09818300    0.18019900    0.03704200
 H                 -1.22547800   -1.87834200   -1.41432700
 H                 -1.16655300   -0.87039000   -2.84631500
 H                 -3.38464500   -0.83737900   -0.69812400
 H                 -5.69752100    0.69583200   -2.67792400
 H                 -5.48268100   -0.33771200   -1.27220200
 H                 -5.84448200   -2.35376200   -2.74012500
 H                 -6.13993600   -1.30375100   -4.11097800
 H                 -7.84131200   -1.45083000   -1.53858400
 H                -10.58200000    0.04364600   -2.90174200
 H                -10.03281000   -1.03904500   -1.63011900
 H                -10.62450400   -3.00370000   -3.09291600
 H                -11.24470900   -1.90989300   -4.31263800
 H                -12.34987400   -2.24455500   -1.44873200
 H                  2.57020800    0.12976100   -2.20475100
 H                  1.18526800    1.07431100   -2.76532000
 H                  1.20703700   -0.66771300   -2.98964800
 H                 -2.41445200   -0.12538100   -4.27931900
 H                 -3.93916100    0.74400600   -4.48423200
 H                 -3.87374200   -0.98867500   -4.76450100
 H                 -7.68993700   -0.54574300   -5.20372600
 H                 -9.26180400    0.24386600   -5.04049600
 H                 -9.17679600   -1.47082200   -5.41298500
 H                -13.02401000   -1.19847000   -5.01595300
 H                -14.55352700   -0.49120400   -4.48502000
 H                -14.48455300   -2.18473600   -4.94667700
 H                -15.37998600   -0.84047900   -2.12885400
 H                -14.52402400   -1.93600500   -1.05287700
 H                -15.32784400   -3.87695000   -2.44644000
 H                -16.24837800   -2.77457300   -3.44993300
 H                -16.68177700   -3.26002500   -0.43109300
 H                -18.17932400   -2.17138200   -3.72551400
 H                -19.58992700   -1.56986800   -2.84728600
 H                -19.53458400   -3.24428300   -3.37402800
 H                -19.85170700   -2.02205500   -0.37777200
 H                -18.72578000   -3.09723000    0.43912200
 H                -19.72544600   -5.04059400   -0.82339900
 H                -20.90083200   -3.95906900   -1.54674900
 H                -20.61398900   -4.54033800    1.47313200
 H                -22.91641000   -3.65984100   -1.41208300
 H                -23.99093000   -2.91007100   -0.22480900
 H                -24.16665100   -4.61653500   -0.60526100
 H                -22.47274500   -4.62639300    2.79361300
 H                -23.92462800   -5.17831800    1.93618600
 H                -23.72624600   -3.47062700    2.30225100





























































