%chk=290-rad.chk
%nproc=8
%mem=30GB
#P UB3LYP/6-311++G(d,p) nosym opt freq

Radical

-1 2
  O   -0.1263342    1.8677142   -0.0472782
  C   -0.4587241    0.6922664   -0.0938648
  C    0.5713973   -0.3690867   -0.3306178
  C    0.1890397   -1.6778753   -0.3786128
  O    1.0721927   -2.6820567   -0.6115852
  C   -1.2331716   -2.0599350   -0.1887624
  O   -1.5454332   -3.2407745   -0.2291869
  C   -2.2683136   -1.0235526    0.0319885
  C   -3.6223874   -1.3719156    0.1901671
  C   -4.5861646   -0.3808090    0.3900991
  C   -4.2097083    0.9620402    0.4356666
  C   -2.8679720    1.3191783    0.2816387
  C   -1.8878224    0.3296842    0.0778743
  C    2.0233227    0.0453138   -0.5355536
  H   -3.9356580   -2.4078161    0.1564928
  H   -5.6267174   -0.6544654    0.5086845
  H   -4.9588740    1.7280491    0.5895715
  H   -2.5983553    2.3671299    0.3191621
  C    2.9338906   -0.4950168    0.5432091
  C    4.2707397   -0.2831378    0.5702953
  C    5.0035063    0.5275711   -0.4738333
  C    5.1017773   -0.8732712    1.6797450
  H    2.0145017   -2.5603520   -0.7837574
  H    2.1184313    1.1508752   -0.5285718
  H    2.3541484   -0.3184494   -1.5320432
  H    2.4830983   -1.0902138    1.3340726
  H    4.3454365    0.9377949   -1.2642862
  H    5.7667569   -0.1105914   -0.9660838
  H    5.5144455    1.3818489    0.0176362
  H    4.4906310   -1.4561848    2.4015397
  H    5.6140826   -0.0591133    2.2338230
  H    5.8672258   -1.5513058    1.2467474






