%chk=046-rad.chk
%nproc=8
%mem=30GB
#P UB3LYP/6-311++G(d,p) nosym  opt freq

Radical

-1 2
C                  2.6214380000     -0.3382840000     -1.9374510000
C                  2.5914800000     -0.0053170000     -0.4256270000
C                  2.8032820000      1.5157770000     -0.2284990000
C                  3.7855600000     -0.7269270000      0.2299020000
C                  1.2404820000     -0.4343170000      0.1838080000
C                  1.1734330000     -1.3598250000      1.1967000000
C                 -0.0633600000     -1.7944240000      1.8000540000
O                 -0.0935010000     -2.6500500000      2.7333550000
C                 -1.2635370000     -1.1913440000      1.2723320000
C                 -1.2650410000     -0.2610020000      0.2616330000
C                  0.0058810000      0.1661090000     -0.3374620000
O                  0.0362780000      1.0249080000     -1.2734910000
C                 -2.5791780000      0.3528670000     -0.2647860000
C                 -2.7487220000      0.0332380000     -1.7702560000
C                 -3.8185170000     -0.1991790000      0.4669580000
C                 -2.5663560000      1.8878350000     -0.0620440000
H                  3.5808690000     -0.0322580000     -2.3740020000
H                  2.5084760000     -1.4165480000     -2.0923930000
H                  1.8132540000      0.1757590000     -2.4560430000
H                  1.9992550000      2.0762330000     -0.7036920000
H                  3.7625560000      1.8245070000     -0.6635250000
H                  2.8210910000      1.7628660000      0.8382880000
H                  3.7263520000     -1.8119390000      0.1039380000
H                  3.8540880000     -0.5138230000      1.3006330000
H                  4.7148910000     -0.3857060000     -0.2393970000
H                  2.0646380000     -1.8219690000      1.6043300000
H                 -2.1828900000     -1.5283370000      1.7361650000
H                 -3.6815550000      0.4712720000     -2.1481120000
H                 -2.7963570000     -1.0496410000     -1.9268120000
H                 -1.9107840000      0.4322930000     -2.3402820000
H                 -3.7904120000      0.0176400000      1.5387630000
H                 -4.7191370000      0.2687980000      0.0543840000
H                 -3.9176810000     -1.2814820000      0.3431460000
H                 -3.4994470000      2.3275660000     -0.4372110000
H                 -2.4824900000      2.1308090000      1.0025510000
H                 -1.7243420000      2.3338940000     -0.5896520000


