%chk=136-rad.chk
%nproc=8
%mem=30GB
#P UB3LYP/6-311++G(d,p) nosym opt freq

Radical

-1 2
O    -0.0081435861   -1.4925232641   -2.2899139946
C    -0.0206009106   -0.7949135289   -1.2534724763
C     1.2656024510   -0.4367969225   -0.6314688100
C     2.4652013437   -0.8646388325   -1.1841850145
C     3.6571935079   -0.5166226154   -0.5837583781
C     4.8334567643   -0.9652979886   -1.1690668437
C     6.0411835079   -0.6489135468   -0.6145711478
C     6.0578595015    0.1201329894    0.5301284039
C     4.9068686918    0.5804587656    1.1345192174
C     3.7009981127    0.2468576110    0.5545543626
C     2.5186845411    0.6778187467    1.1131097793
C     1.3027860129    0.3308202480    0.5125331817
C     0.0353433204    0.7830432624    1.0967752195
O     0.0748544515    1.4871257990    2.1464596924
C    -1.2314115266    0.4219207237    0.4716569003
C    -2.4347682352    0.8444063822    1.0161564792
C    -3.6704254732    0.5528678397    0.4966775645
C    -4.8482748194    0.9828435035    1.0541065846
C    -6.0425847027    0.6455130556    0.4694380281
C    -6.0642348614   -0.1278027874   -0.6819593063
C    -4.8891715798   -0.5599117006   -1.2427569670
C    -3.6856793014   -0.2300447981   -0.6685478207
C    -2.5064535937   -0.6654116051   -1.2338774900
C    -1.2852702176   -0.3500234502   -0.6799420954
H     2.4344349903   -1.4645208959   -2.0783246577
H     4.7946708074   -1.5775186853   -2.0821030269
H     6.9463842075   -0.9985425323   -1.0714599438
H     7.0093611119    0.3650731045    0.9605694540
H     4.8879297992    1.1783259922    2.0222113154
H     2.5033903511    1.2812758499    2.0093547628
H    -2.3949963029    1.4542909120    1.9257971244
H    -4.8456287429    1.5774712336    1.9384784930
H    -6.9818055980    0.9605964188    0.8726190292
H    -7.0293652868   -0.3643449865   -1.1008231967
H    -4.9675753067   -1.1675090030   -2.1516958966
H    -2.5298134290   -1.2655052945   -2.1278206653


