%chk=239-rad.chk
%nproc=8
%mem=30GB
#P UB3LYP/6-311++G(d,p) nosym  opt freq SCRF=(PCM,Solvent=n,n-DiMethylFormamide)

Radical

-1 2
C                 -2.8936590000      1.3085910000     -0.7452600000
C                 -2.1732080000      0.0820270000     -0.1527180000
C                 -2.7230090000     -0.1373420000      1.2781290000
C                 -2.5297160000     -1.1407540000     -1.0332700000
C                 -0.6428080000      0.2613820000     -0.1026590000
C                 -0.0359640000      1.4211120000     -0.5552240000
C                  1.3776540000      1.6801530000     -0.5495200000
O                  1.8662200000      2.7614070000     -0.9779740000
C                  2.2212100000      0.6040210000     -0.0118260000
C                  3.6205100000      0.7555470000      0.0396870000
C                  4.4265380000     -0.2493950000      0.5434410000
C                  3.8446400000     -1.4438060000      1.0131080000
C                  2.4718440000     -1.6087500000      0.9696040000
C                  1.6322980000     -0.5966840000      0.4599550000
C                  0.1735390000     -0.8173790000      0.4335570000
O                 -0.3065040000     -1.9044570000      0.8649610000
H                 -2.5807140000      1.5088980000     -1.7741180000
H                 -3.9733600000      1.1233000000     -0.7542550000
H                 -2.7147830000      2.2120400000     -0.1550250000
H                 -2.2631150000     -1.0143940000      1.7322810000
H                 -3.8111900000     -0.2775100000      1.2490410000
H                 -2.5110900000      0.7346190000      1.9057950000
H                 -3.6177600000     -1.2814380000     -1.0645480000
H                 -2.0651950000     -2.0431800000     -0.6372270000
H                 -2.1790110000     -0.9870110000     -2.0592080000
H                 -0.6278760000      2.2345090000     -0.9576100000
H                  4.0358400000      1.6866140000     -0.3295960000
H                  5.5045620000     -0.1201490000      0.5777600000
H                  4.4752220000     -2.2347370000      1.4093400000
H                  1.9988870000     -2.5172350000      1.3242860000


