%chk=206-rad.chk
%nproc=8
%mem=30GB
#P UB3LYP/6-311++G(d,p) nosym  opt freq

Radical

-1 2
C                 -4.5513420000      0.8945480000      0.3460910000
C                 -3.1974700000      0.2555190000      0.1796030000
C                 -3.0624400000     -1.1184740000     -0.0598950000
C                 -1.8185700000     -1.7198610000     -0.2151480000
O                 -1.7665340000     -3.0543830000     -0.4444340000
C                 -0.6369530000     -0.9345030000     -0.1318560000
C                  0.6579830000     -1.5440280000     -0.2906100000
O                  0.7610160000     -2.8192880000     -0.5119330000
C                  1.8359220000     -0.7193830000     -0.2004700000
C                  3.1289160000     -1.2947370000     -0.3531960000
O                  3.2906510000     -2.6201480000     -0.5851910000
C                  4.2585600000     -0.4890990000     -0.2643590000
C                  4.1440350000      0.8841190000     -0.0262200000
C                  2.8983900000      1.4817160000      0.1282980000
O                  2.8406440000      2.8163220000      0.3574080000
C                  1.7179210000      0.6895650000      0.0439890000
C                  0.4217500000      1.2972550000      0.2025960000
O                  0.3155740000      2.5736810000      0.4243040000
C                 -0.7570910000      0.4723060000      0.1125230000
C                 -2.0481030000      1.0467530000      0.2652350000
O                 -2.2051560000      2.3744590000      0.4977860000
H                 -4.7149090000      1.6773280000     -0.4019570000
H                 -4.6429990000      1.3800100000      1.3233480000
H                 -5.3465620000      0.1512250000      0.2511500000
H                 -3.9435900000     -1.7477700000     -0.1294670000
H                 -0.7968240000     -3.2712450000     -0.5227060000
H                  2.3691250000     -2.9987430000     -0.6102090000
H                  5.2313740000     -0.9523480000     -0.3844030000
H                  5.0262560000      1.5105410000      0.0426720000
H                  1.8702080000      3.0296730000      0.4348940000
H                 -1.2797820000      2.7489890000      0.5221540000


