%chk=280-an.chk
%nproc=8
%mem=30GB
#P UB3LYP/6-311++G(d,p) nosym opt freq SCF=YQC

Reduced

-2 1
O                  2.3664000000      1.6244130000      0.3542320000
C                  1.7302120000      0.4890600000      0.2289020000
C                  2.3941400000     -0.7551320000      0.2548970000
C                  1.6902800000     -1.9705240000      0.1187490000
C                  0.3177320000     -1.9947640000     -0.0464900000
C                 -0.4223730000     -0.7831780000     -0.0836080000
C                 -1.8860600000     -0.8416300000     -0.2618720000
O                 -2.5093300000     -1.9632290000     -0.3838810000
C                 -2.5267190000      0.4218940000     -0.2855540000
C                 -1.8304850000      1.6458100000     -0.1500920000
C                 -0.4600200000      1.6890200000      0.0164950000
O                  0.1953520000      2.9034120000      0.1465380000
C                  0.2755450000      0.4641240000      0.0531940000
H                  1.1641560000      2.6254670000      0.2514280000
H                  3.4748670000     -0.7437750000      0.3849690000
H                  2.2473630000     -2.9093680000      0.1452210000
H                 -0.2382570000     -2.9196520000     -0.1523300000
H                 -3.6084400000      0.4279130000     -0.4153550000
H                 -2.3743620000      2.5901380000     -0.1754420000


