%chk=284-rad.chk
%nproc=8
%mem=30GB
#P UB3LYP/6-311++G(d,p) nosym  opt freq SCRF=(PCM,Solvent=n,n-DiMethylFormamide)

Radical

-1 2
C                 -0.1641410000      3.8389820000     -0.0493980000
C                 -1.3925580000      3.2170390000     -0.1738940000
C                 -1.4599700000      1.8447260000     -0.4891190000
C                  1.0346650000      3.1164620000     -0.2341220000
C                  0.9685740000      1.7296230000     -0.5531580000
C                 -0.2929290000      1.1211810000     -0.6740890000
C                  2.3203930000      3.7683150000     -0.1035030000
C                  3.4900270000      2.9460490000     -0.3118240000
C                  3.4623820000      1.6009680000     -0.6141110000
C                  2.1913830000      0.9242220000     -0.7587890000
O                  2.4944400000      4.9996350000      0.1782790000
O                  2.1193560000     -0.2995790000     -1.0448250000
H                 -0.0865780000      4.8930340000      0.1924560000
H                 -2.3068540000      3.7854300000     -0.0290710000
H                 -2.4253040000      1.3569130000     -0.5867210000
H                 -0.3148930000      0.0650190000     -0.9179950000
O                  4.6644950000      3.6282810000     -0.1759620000
C                  4.7296690000      0.8116520000     -0.8184220000
C                  5.1578250000      0.7201630000     -2.2959430000
C                  6.4264070000     -0.1142550000     -2.5042790000
C                  6.8646650000     -0.2157770000     -3.9697160000
C                  8.1311910000     -1.0530230000     -4.1830590000
C                  8.5599610000     -1.1481930000     -5.6510200000
H                  4.3479950000      4.5328370000      0.0428780000
H                  4.5633460000     -0.2036670000     -0.4441650000
H                  5.5405550000      1.2638560000     -0.2380980000
H                  5.3173360000      1.7328220000     -2.6854790000
H                  4.3329280000      0.2835190000     -2.8689490000
H                  6.2609200000     -1.1245940000     -2.1067920000
H                  7.2459730000      0.3161460000     -1.9122390000
H                  7.0295860000      0.7940890000     -4.3687320000
H                  6.0454590000     -0.6446920000     -4.5617850000
H                  7.9664450000     -2.0623680000     -3.7856590000
H                  8.9502450000     -0.6248330000     -3.5915130000
H                  7.7739560000     -1.6038400000     -6.2623290000
H                  9.4655420000     -1.7518890000     -5.7697560000
H                  8.7647050000     -0.1561040000     -6.0671020000


