%chk=161-an-PCM.chk
%nproc=8
%mem=30GB
#P UB3LYP/6-311++G(d,p) SCRF=(PCM,Solvent=n,n-DiMethylFormamide)

Reduced 

-2 1
N                 -4.5579810000      1.0371550000     -0.4993690000
C                 -3.2778340000      0.4628570000     -0.3243410000
C                 -3.1442970000     -0.9581460000     -0.2528790000
Cl                -4.6511820000     -1.9616660000     -0.2023180000
C                 -1.9301130000     -1.5770950000     -0.1953280000
C                 -0.7292000000     -0.8389040000     -0.1413090000
C                  0.5012090000     -1.6015760000     -0.1011250000
O                  0.5266080000     -2.8822730000     -0.1842190000
C                  1.6920820000     -0.8032550000      0.0766340000
C                  2.9577420000     -1.4403860000      0.1299720000
C                  4.1283460000     -0.7322750000      0.3067670000
C                  4.0747980000      0.6827750000      0.4427010000
C                  2.8559830000      1.3283710000      0.4034680000
C                  1.6334620000      0.6318050000      0.2204820000
C                  0.3965330000      1.4012520000      0.2051360000
O                  0.4050510000      2.6673750000      0.3989830000
C                 -0.7916240000      0.6237140000     -0.0547820000
C                 -2.1009410000      1.1836000000     -0.2278220000
Br                -2.3188030000      3.1126970000     -0.6208660000
H                 -4.4877210000      1.9775130000     -0.8727140000
H                 -5.1645660000      0.4558700000     -1.0662160000
H                 -1.8342420000     -2.6566400000     -0.1776620000
H                  2.9585620000     -2.5211090000      0.0261700000
H                  5.0853300000     -1.2500440000      0.3438420000
H                  4.9926790000      1.2526470000      0.5781450000
H                  2.7801190000      2.4057410000      0.5112380000





