%chk=039-rad.chk
%nproc=8
%mem=30GB
#P UB3LYP/6-311++G(d,p) nosym  opt freq

Radical

-1 2
C    -2.6140376347   -0.5978822953   -0.2136337956
C    -1.2635307242    0.0197526959   -0.0459489077
C    -1.1977793094    1.3151588706    0.2163983271
C     0.1269796671    1.9035243785    0.3773828649
O     0.1886355419    3.1350971803    0.6267633735
C     1.3210025502    1.0763282053    0.2497914236
C     1.2652336989   -0.2205889108   -0.0125254607
C     2.4906661292   -1.0578449338   -0.1411097432
C    -0.0624782448   -0.8028353290   -0.1723849562
O    -0.1175108163   -2.0472578827   -0.4241389028
H    -2.5000224651   -1.6678360854    0.0304071197
H    -3.3566474278   -0.1484461429    0.4807822873
H    -2.9308306054   -0.5491667268   -1.2745526143
H    -2.0895829436    1.9276668380    0.3106352671
H     2.3185950471    1.5108735205    0.3692949638
H     3.3675790833   -0.4012168947   -0.0060445224
H     2.5365335706   -1.6071852914   -1.0840417499
H     2.5171948828   -1.7881411964    0.7129250259


