%chk=119-an.chk
%nproc=8
%mem=30GB
#P UB3LYP/genecp nosym opt freq 

Reduced

-2 1
C                  6.8871600000     -1.6443220000     -0.2499200000
C                  7.4530740000     -0.6899210000     -1.0689980000
C                  6.6313960000      0.3242320000     -1.6390710000
C                  5.2797270000      0.3384490000     -1.3642710000
C                  4.6630800000     -0.6268100000     -0.5265330000
C                  5.5005850000     -1.6605590000      0.0545610000
C                  4.9854140000     -2.6989550000      0.9244080000
C                  3.5658010000     -2.6118300000      1.1611990000
C                  2.7212500000     -1.5748050000      0.5791770000
C                  3.2363940000     -0.5426130000     -0.2869860000
C                  2.9570700000     -3.5842950000      2.0037770000
C                  1.6132430000     -3.5391240000      2.2552660000
C                  0.7582810000     -2.5425020000      1.7049690000
C                  1.3386790000     -1.5944250000      0.8863280000
O                  5.7310510000     -3.6134490000      1.4385830000
O                  2.4957110000      0.3752770000     -0.8034510000
H                  7.4850690000     -2.4309650000      0.2005120000
H                  4.6247440000      1.0972080000     -1.7821670000
H                  3.6150230000     -4.3393630000      2.4184940000
H                  0.7353150000     -0.8098250000      0.4384310000
I                  0.7129610000     -5.0257660000      3.5378070000
H                  8.5212950000     -0.7099930000     -1.2797140000
H                  7.0691040000      1.0821630000     -2.2869840000
H                 -0.3034280000     -2.5318170000      1.9220430000

H C O 0
6-311++G(d,p)
****
I 0
def2TZVP
****

I 0
def2TZVP





