%chk=163.chk
%nproc=8
%mem=30GB
#P UB3LYP/6-311++G(d,p) nosym opt freq

Oxidized

-1 1
C         -1.84069        1.99554       -5.10445
C         -2.02895        0.64973       -5.42259
C         -1.73602       -0.33535       -4.48032
C         -1.36779        2.35633       -3.83583
C         -1.07598        1.37846       -2.89774
C         -1.25504        0.02617       -3.22048
C         -1.14054        3.76945       -3.50555
C         -0.53912        1.76117       -1.58058
C         -0.98621        4.16418       -2.07587
C         -0.67398        3.17158       -1.11981
C         -1.13814        5.52681       -1.71198
C         -0.98653        5.85152       -0.35510
C         -0.66207        4.87787        0.59830
C         -0.51791        3.54257        0.22646
O         -1.06171        4.57853       -4.42535
O          0.01538        0.89052       -0.92222
H         -2.06066        2.76305       -5.84452
H         -2.39777        0.37188       -6.40699
H         -1.87495       -1.38515       -4.72705
H         -1.01652       -0.74661       -2.49177
Br        -0.17056        2.33843        1.65872
N         -1.68440        6.44800       -2.63227
S         -1.09572        7.55594        0.26952
O         -1.05562        8.37546       -0.94111
O         -2.36944        7.52933        0.97984
O          0.09589        7.64765        1.10919
H         -0.54407        5.18949        1.63621
H         -1.39638        6.27145       -3.59656
H         -1.49239        7.42362       -2.33672






