%chk=293.chk
%nproc=8
%mem=30GB
#P UB3LYP/6-311++G(d,p) nosym opt freq

Oxidized

0 1
C                 -0.06837300    0.74982700   -1.02121900
 C                 -0.96742300   -0.12360900   -0.43799000
 C                 -0.52070200   -1.35838500    0.07437800
 C                  1.30179600    0.42265500   -1.11341600
 C                  1.75513700   -0.82465300   -0.59593300
 C                  0.82081700   -1.69472900   -0.00749500
 C                  2.24245100    1.33833100   -1.72407600
 C                  3.62310100    0.91559400   -1.77220900
 C                  4.09303800   -0.28750800   -1.28952800
 C                  3.17850000   -1.21771000   -0.66401700
 O                  1.94603000    2.47632100   -2.21590900
 O                  3.57059100   -2.31895600   -0.19614600
 O                  4.45149200    1.82938100   -2.35660000
 H                 -0.38800400    1.70504900   -1.42227300
 H                 -2.01890800    0.14115700   -0.37393000
 H                 -1.22768300   -2.04378400    0.53222500
 H                  1.19215100   -2.63713200    0.37900000
 H                  3.82405700    2.54812300   -2.59350800
 C                  5.55073700   -0.65879300   -1.37447800
 C                  6.32511500   -0.35430800   -0.07780100
 H                  6.01830300   -0.12539800   -2.20807300
 H                  5.61960300   -1.73375600   -1.57119100
 H                  5.83048800   -0.87476000    0.74892500
 H                  6.26156300    0.71987400    0.13416200
 C                  7.79550400   -0.77753300   -0.14566100
 C                  8.56641000   -0.48653700    1.15803800
 C                 10.01729500   -0.90480300    1.10354100
 C                 11.01176500   -0.01645700    0.67595600
 C                 10.40763700   -2.20553200    1.44558400
 C                 11.73808200   -2.61156800    1.36114900
 C                 12.70049200   -1.70758200    0.92582800
 C                 12.34676000   -0.40644400    0.58676300
 O                 14.04347400   -2.08635600    0.91058700
 C                 14.59624600   -2.58855000   -0.24301000
 C                 13.88464600   -2.78777100   -1.42730000
 C                 15.95594800   -2.90902500   -0.17652100
 C                 16.59885100   -3.42695500   -1.29457700
 C                 14.54517100   -3.30844900   -2.54088800
 C                 15.89863700   -3.63054600   -2.48566300
 H                  8.29324300   -0.26356300   -0.97791900
 H                  7.85794900   -1.85038700   -0.36570600
 H                  8.06793400   -1.00295300    1.98543400
 H                  8.50390600    0.58505600    1.37678200
 H                 10.73783800    1.00053500    0.41386800
 H                  9.65806700   -2.91168500    1.78814200
 H                 12.03593700   -3.61705000    1.63536100
 H                 13.11318500    0.28894300    0.26419600
 H                 12.83245000   -2.54106200   -1.47960000
 H                 16.48447200   -2.74497600    0.75500500
 H                 17.65364000   -3.67287000   -1.23512000
 H                 13.98720600   -3.46142300   -3.45821400
 H                 16.40226700   -4.03436200   -3.35617600




















































































