%chk=247-rad.chk
%nproc=8
%mem=30GB
#P UB3LYP/6-311++G(d,p) nosym opt freq

Radical

-1 2
C    -2.9857120249    1.6054230328    0.0763138114
C    -2.4670709320    0.4796948810   -0.7693138497
C    -1.0921346878    0.0597169468   -0.3996193970
C    -0.8936633269   -1.1877930807   -0.0061606469
C    -2.0408410448   -2.1574662573    0.0636499004
C     0.4611671724   -1.5771637328    0.3511090093
O     0.6568918880   -2.7556862510    0.7242934714
C     1.5996871274   -0.6648387856    0.2961598360
C     2.8764006172   -1.0268742658    0.6314396151
C     3.9534091493   -0.1498411310    0.5754536792
C     3.6791080461    1.1358392070    0.1573024135
C     2.4010942297    1.5307148916   -0.1876231076
C     1.3431205545    0.6272513801   -0.1206112881
C    -0.0180712239    1.0397517216   -0.4856666319
O    -0.1903840041    2.2294824149   -0.8578383860
H    -3.8586175225    2.0484729135   -0.4443432891
H    -2.2411578792    2.4068902628    0.2496776489
H    -3.3821668960    1.2245627157    1.0608414718
H    -3.1845600437   -0.3461857634   -0.7448405842
H    -2.4497980039    0.8639861061   -1.8306337879
H    -1.6525542401   -3.1294488165    0.4310291072
H    -2.8024075629   -1.8167040467    0.7898823962
H    -2.4521687475   -2.3533979204   -0.9475925869
H     3.0637626724   -2.0330073609    0.9537270062
H     4.9606111628   -0.4432441324    0.8421850257
H     4.5095777754    1.8479004011    0.1038665078
H     2.2064777450    2.5419646694   -0.5126873451


