%chk=115-an.chk
%nproc=8
%mem=30GB
#P UB3LYP/6-311++G(d,p) nosym opt freq

Reduced

-2 1
C         -2.20004       -3.78248        1.21989
C         -0.73808       -3.86650        1.41036
C          0.00408       -2.77443        1.59888
C         -0.60382       -1.43074        1.62406
C         -2.06010       -1.33583        1.41849
C         -2.81378       -2.42654        1.22914
O         -2.84195       -4.81449        1.06738
O          0.10372       -0.44912        1.80951
Cl        -4.53051       -2.37275        1.00730
C         -2.69496       -0.01526        1.41971
O         -3.01898        0.58653        0.40900
O         -2.88545        0.37757        2.70324
C         -3.50825        1.65715        2.82456
H         -0.30586       -4.86077        1.39093
H          1.07781       -2.82403        1.74161
H         -3.64760        1.86658        3.88870
H         -4.49040        1.65519        2.34114
H         -2.86720        2.43488        2.39800











