%chk=089-rad.chk
%nproc=8
%mem=30GB
#P UB3LYP/6-311++G(d,p) nosym  opt freq

Radical

-1 2
C          1.48427        1.30917       -0.65366
C          0.23312        1.87567       -0.10257
C         -0.73715        1.05938        0.32251
C         -0.56131       -0.40789        0.25526
C          0.71198       -1.01882       -0.29067
C          1.69326       -0.19062       -0.74167
O          2.36660        2.07576       -1.04159
O         -1.47748       -1.12987        0.65152
O          2.92169       -0.41894       -1.29016
C          3.63087       -1.60275       -1.52161
C          0.12682        3.37545       -0.05412
C         -2.05545        1.51063        0.88999
H          4.61049       -1.32422       -1.92517
H          3.15078       -2.20563       -2.29141
H          3.82522       -2.13885       -0.59334
O          0.59963       -2.37655       -0.21965
C          1.44428       -3.40294       -0.65684
H          0.93668       -4.35276       -0.45615
H          2.36619       -3.42830       -0.07721
H          1.59740       -3.36131       -1.73467
H          1.01875        3.88755       -0.42593
H         -0.02289        3.71467        0.97675
H         -0.71396        3.71883       -0.66643
H         -2.15683        2.59849        0.93213
H         -2.17990        1.13566        1.91160
H         -2.88214        1.13445        0.27742








