%chk=211-an.chk
%nproc=8
%mem=30GB
#P UB3LYP/6-311++G(d,p) nosym opt freq

Reduced

-2 1
  C    5.3201149   -2.3002091    0.3456117
  C    6.0687127   -1.4590811   -0.4797671
  C    5.4247034   -0.5789854   -1.3475833
  C    3.9105614   -2.2701588    0.3118866
  C    3.2646511   -1.3816288   -0.5643098
  C    4.0303853   -0.5378371   -1.3922264
  C    3.1147343   -3.1671897    1.1922115
  C    1.6042596   -3.1469988    1.1679283
  C    0.9823418   -2.2349575    0.2684754
  C    1.7895696   -1.3423501   -0.6074356
  C    0.7626542   -3.9845275    1.9897662
  C   -0.6547683   -3.8694426    1.8721733
  C   -0.4152934   -2.1591625    0.1896029
  C   -1.2193685   -2.9622721    0.9775423
  O    3.7260919   -3.9175818    1.9322834
  O    1.2303700   -0.5672634   -1.3718114
  H    5.8461340   -2.9740577    1.0101725
  H    7.1501578   -1.4902218   -0.4459317
  H    6.0064067    0.0725569   -1.9868930
  H   -2.2958533   -2.8718821    0.8852833
  H    3.5518512    0.1538738   -2.0742227
  H   -0.8975627   -1.4686830   -0.4914228
  C   -1.5107109   -4.6646845    2.6523401
  C   -0.9909355   -5.5864364    3.5612867
  C    0.3869072   -5.7160063    3.6930622
  C    1.2537217   -4.9341420    2.9260457
  O   -1.8064087   -6.3531579    4.3135506
  H   -2.5865629   -4.5693426    2.5552037
  H    0.7940475   -6.4307843    4.3979576
  H    2.2928151   -5.1161461    3.1084332
  H   -2.7705389   -6.2938069    4.2521825







