%chk=326-an-PCM.chk
%nproc=8
%mem=30GB
#P UB3LYP/6-311++G(d,p) SCRF=(PCM,Solvent=n,n-DiMethylFormamide)

Reduced 

-3 1
C                 -1.8380980000      2.7917900000     -0.8044880000
C                 -2.9326890000      1.9957400000     -0.5214910000
C                 -2.7174240000      0.6759040000     -0.0579150000
C                 -0.5030280000      2.3406220000     -0.6438340000
C                 -0.2879180000      0.9804410000     -0.1968100000
C                 -1.4284100000      0.1917130000      0.0974370000
C                  0.5897230000      3.2608680000     -0.9721090000
C                  1.9751460000      2.7413280000     -0.8153970000
C                  2.1112640000      1.3779230000     -0.3673600000
C                  1.0647810000      0.5238420000     -0.0720410000
O                  0.3635070000      4.4450740000     -1.3668100000
O                  2.9976470000      3.4623430000     -1.0602850000
H                 -1.9629100000      3.8085740000     -1.1625580000
H                 -3.9484180000      2.3716750000     -0.6540160000
H                 -3.5689900000      0.0363140000      0.1678770000
H                 -1.2726630000     -0.8210540000      0.4469310000
H                  3.1252220000      1.0085310000     -0.2595450000
S                  1.4734140000     -1.1767550000      0.4849170000
O                  2.9684260000     -1.2698670000      0.4863820000
O                  0.8470240000     -2.1209250000     -0.4981330000
O                  0.8937450000     -1.3354810000      1.8595200000





