%chk=192-an.chk
%nproc=8
%mem=30GB
#P UB3LYP/6-311++G(d,p) nosym opt freq SCF=YQC

Reduced

-2 1
 C                  4.96139800   -3.57030200   -3.09415400
 O                  4.12308000   -2.69918000   -2.38406300
 C                  4.59368800   -2.11946900   -1.22777700
 C                  5.85985500   -2.39035300   -0.75121600
 C                  6.32807300   -1.78586600    0.44983800
 C                  5.51439900   -0.92860800    1.13926300
 C                  4.20457000   -0.62226900    0.68324100
 C                  3.41619100    0.28441200    1.46058500
 O                  3.88000800    0.81850600    2.56148700
 C                  2.09696000    0.58296600    0.99365800
 C                  1.27160000    1.47569500    1.76100400
 O                  1.76868300    2.02640700    2.90888100
 C                 -0.00252000    1.77151500    1.33422200
 C                 -0.91916400    2.66238000    2.13405200
 C                 -1.46611300    3.74728000    1.21187800
 O                 -2.37684400    4.64888300    1.91601300
 C                 -2.24597900    3.12968200    0.03983000
 C                 -1.88877100    1.67042200   -0.31587200
 O                 -2.97203500    0.84012900    0.28581400
 C                 -2.99325100   -0.45072000   -0.22892500
 C                 -2.59243500   -1.50259700    0.80152500
 C                 -2.68966300   -2.91582900    0.18849700
 N                 -1.65510300   -3.19971700   -0.82479000
 C                 -4.09397800   -3.10645500   -0.43248500
 O                 -5.10544200   -3.17040800    0.58659000
 C                 -4.39701200   -1.95700200   -1.40720300
 C                 -5.75855400   -2.05393300   -2.08119900
 O                 -4.35044900   -0.72254400   -0.68113700
 C                 -0.51882800    1.23292000    0.11306500
 C                  0.21735900    0.31574200   -0.65303100
 O                 -0.28318400   -0.27335100   -1.72052200
 C                  1.58150400   -0.00399600   -0.21094800
 C                  2.38671000   -0.89395100   -0.97362600
 O                  1.88510800   -1.41618200   -2.12746900
 C                  3.69467600   -1.21899300   -0.53934000
 C                 -0.32804300    4.68455000    0.72944200
 O                 -0.29594300    5.16203100   -0.39011500
 C                  0.73461100    5.13679900    1.72929600
 O                  1.48549400    6.21562000    1.19914700
 H                  4.38619300   -3.89450600   -3.96390200
 H                  5.24385100   -4.45304600   -2.50104000
 H                  5.88225400   -3.07470400   -3.43611400
 H                  6.51282600   -3.06858600   -1.28514300
 H                  7.32950500   -2.01433300    0.80494500
 H                  5.83247000   -0.44823300    2.05680800
 H                  2.72884500    1.62364800    2.96346300
 H                 -0.37841600    3.08960200    2.98355100
 H                 -1.77752600    2.10129500    2.52989200
 H                 -2.09011200    4.67491200    2.83518900
 H                 -2.10422400    3.75632700   -0.84239900
 H                 -3.30431300    3.16126600    0.30440500
 H                 -1.97819700    1.53411900   -1.39603100
 H                 -2.33464700   -0.50655500   -1.10192500
 H                 -1.57102900   -1.29934200    1.13096700
 H                 -3.24927800   -1.40096600    1.67427800
 H                 -2.59899900   -3.66457200    0.98199700
 H                 -1.29943100   -2.34284800   -1.25469000
 H                 -0.84530800   -3.61710800   -0.37952100
 H                 -4.12061600   -4.06582300   -0.95484400
 H                 -5.24076300   -2.25966800    0.88055300
 H                 -3.61307400   -1.95459900   -2.17745200
 H                 -5.82061200   -2.96839700   -2.67972800
 H                 -5.90884400   -1.19339100   -2.73776700
 H                 -6.56036900   -2.07286500   -1.33977700
 H                  0.94401600   -1.03657400   -2.17769800
 H                  0.25178200    5.46123900    2.65936200
 H                  1.37878200    4.28340300    1.97831100
 H                  1.23457700    6.24610200    0.26085300





































