%chk=190.chk
%nproc=8
%mem=30GB
#P UB3LYP/6-311++G(d,p) nosym opt freq SCRF=(PCM,Solvent=n,n-DiMethylFormamide)

Oxidized

-1 1
O                  1.4983470000     -2.8670080000     -0.5590800000
C                  1.4725140000     -1.5447820000     -0.2861230000
C                  2.7329620000     -0.9076580000     -0.1318490000
O                  3.7978400000     -1.7116470000     -0.2826880000
C                  2.8059870000      0.4577190000      0.1402610000
C                  1.6290260000      1.1914760000      0.2613850000
C                  0.3848400000      0.5847150000      0.1216170000
C                 -0.8146170000      1.4355020000      0.2661490000
O                 -0.7495820000      2.6361400000      0.5035140000
C                 -2.1495590000      0.7790120000      0.1091800000
C                 -3.3094450000      1.5522400000      0.2336950000
C                 -4.5602640000      0.9656840000      0.0918280000
C                 -4.6633210000     -0.4032930000     -0.1768170000
C                 -3.5156850000     -1.1758850000     -0.3016090000
C                 -2.2515900000     -0.5921110000     -0.1603130000
C                 -1.0356100000     -1.4654930000     -0.3027790000
O                 -1.1829500000     -2.6579960000     -0.5305680000
C                  0.2844270000     -0.8146310000     -0.1557700000
S                  4.4275750000      1.2617980000      0.4019390000
O                  5.3760950000      0.2222700000     -0.1618830000
O                  4.3970590000      2.5070530000     -0.3798850000
O                  4.5555890000      1.4226170000      1.8609430000
H                  2.4388900000     -3.1065240000     -0.6069070000
H                  4.6192110000     -1.1014690000     -0.2512000000
H                  1.6737890000      2.2541740000      0.4620700000
H                 -3.1979010000      2.6092960000      0.4422470000
H                 -5.4565810000      1.5690790000      0.1892840000
H                 -5.6399630000     -0.8625560000     -0.2877380000
H                 -3.5670830000     -2.2377190000     -0.5089030000


