%chk=130-an.chk
%nproc=8
%mem=30GB
#P UB3LYP/6-311++G(d,p) nosym opt freq SCRF=(PCM,Solvent=n,n-DiMethylFormamide)

Reduced

-2 1
C                 -3.3701960000      3.4889980000      0.0186090000
C                 -4.5921430000      2.8502890000      0.0810380000
C                 -4.6063410000      1.4235080000      0.1225030000
C                 -2.1313130000      2.7945670000      0.0103590000
C                 -2.1590180000      1.3508980000      0.0682060000
C                 -3.4232210000      0.7144630000      0.1109320000
C                 -0.8955900000      3.5522240000     -0.0414590000
C                  0.3099950000      2.7458100000     -0.0372760000
C                  0.2822540000      1.3021490000      0.0206590000
C                 -0.9533830000      0.5430400000      0.0774600000
C                  1.5749930000      3.3901990000     -0.0779490000
C                  2.7719730000      2.7031590000     -0.0626240000
C                  2.7307850000      1.2769230000     -0.0204160000
C                  1.5207410000      0.6157070000      0.0147330000
O                 -0.8707860000      4.8331190000     -0.0807220000
O                 -0.9780180000     -0.7360440000      0.1232280000
C                 -5.8936420000      3.6162600000      0.0880550000
H                 -5.5593940000      0.8976040000      0.1676040000
H                 -3.4182140000     -0.3707760000      0.1443920000
H                  1.4736840000     -0.4684850000      0.0493680000
C                  4.1022890000      3.4165540000     -0.1070990000
H                  3.6631050000      0.7133380000     -0.0119630000
H                 -3.3110830000      4.5729750000     -0.0263220000
H                  1.5575140000      4.4757010000     -0.1215220000
H                 -5.7184370000      4.6955390000      0.0391770000
H                 -6.4834270000      3.4166800000      0.9920530000
H                 -6.5399240000      3.3468540000     -0.7660060000
H                  3.9685170000      4.5020020000     -0.1499660000
H                  4.7034180000      3.1222140000     -0.9855570000
H                  4.7185220000      3.1929120000      0.7733160000


