%chk=247-rad.chk
%nproc=8
%mem=30GB
#P UB3LYP/6-311++G(d,p) nosym  opt freq

Radical

-1 2
C                 -3.1475440000      1.4262970000      0.1940760000
C                 -2.4129160000      0.6526050000     -0.9182660000
C                 -1.0499090000      0.1547820000     -0.4904200000
C                 -0.8598590000     -1.1301350000      0.0077180000
C                 -2.0037020000     -2.1105130000      0.1325310000
C                  0.4436780000     -1.6081810000      0.4273260000
O                  0.6273530000     -2.7749650000      0.8757990000
C                  1.5640370000     -0.6627630000      0.3089680000
C                  2.8590430000     -1.0597800000      0.6985870000
C                  3.9316800000     -0.1917310000      0.5973120000
C                  3.7360230000      1.1116590000      0.0979220000
C                  2.4718310000      1.5190640000     -0.2889670000
C                  1.3676950000      0.6483950000     -0.1930940000
C                  0.0352300000      1.1067180000     -0.6107470000
O                 -0.1434180000      2.2765270000     -1.0533610000
H                 -4.1275530000      1.7803050000     -0.1493020000
H                 -2.5570280000      2.2946390000      0.4941930000
H                 -3.3056070000      0.7987730000      1.0769900000
H                 -3.0372710000     -0.1812140000     -1.2527730000
H                 -2.2751540000      1.3288410000     -1.7665090000
H                 -1.6420790000     -3.0163750000      0.6197550000
H                 -2.8349060000     -1.7019080000      0.7181240000
H                 -2.4097420000     -2.3895910000     -0.8482110000
H                  2.9788220000     -2.0680190000      1.0784870000
H                  4.9238360000     -0.5127670000      0.9017310000
H                  4.5776180000      1.7940380000      0.0179580000
H                  2.2898430000      2.5153020000     -0.6758280000


