%chk=300-an.chk
%nproc=24
%mem=825GB
#P UB3LYP/6-311++G(d,p) nosym opt freq SCF=YQC Int=Acc2E=11

Reduced

-2 1
C                  0.05474300    4.23808500    0.72936400
 C                 -1.05356300    4.23098500   -0.09570500
 C                 -1.03693100    3.48277300   -1.29602900
 C                  1.22130900    3.50667500    0.40004100
 C                  1.23904200    2.74513700   -0.81865800
 C                  0.09525400    2.75857700   -1.63659100
 C                  2.37039800    3.52124600    1.26437700
 C                  3.49756600    2.74280500    0.83165000
 C                  3.55467400    2.00145300   -0.33852100
 C                  2.41573400    1.96008900   -1.22423100
 O                  2.47090300    4.16485900    2.37606700
 O                  2.42584100    1.28713000   -2.30018100
 O                  4.55620300    2.80112100    1.70238300
 C                  4.78902600    1.22298700   -0.71504700
 C                  4.73528100   -0.25998700   -0.29706300
 C                  5.97707300   -1.05084500   -0.72553300
 C                  5.95158400   -2.52788800   -0.31299800
 C                  7.19469300   -3.31310800   -0.75010600
 C                  7.18079300   -4.78998900   -0.33664600
 C                  8.42621100   -5.56487500   -0.78401100
 C                  8.42325400   -7.04197700   -0.37051300
 C                  9.67550700   -7.79868700   -0.83027400
 C                  9.67082800   -9.26104300   -0.41072000
 H                  0.06468000    4.80445900    1.65471000
 H                 -1.93913400    4.79986400    0.17736100
 H                 -1.90777400    3.47562700   -1.94622100
 H                  0.13724000    2.17402600   -2.54970900
 H                  4.18869900    3.40067100    2.39424200
 H                  5.67109200    1.68857400   -0.26147000
 H                  4.89710000    1.26492500   -1.80474000
 H                  3.84053700   -0.70928400   -0.74089400
 H                  4.61986400   -0.32042500    0.79209100
 H                  6.87339100   -0.57595600   -0.30197800
 H                  6.08439400   -0.98442600   -1.81674300
 H                  5.05636400   -3.00375100   -0.73426700
 H                  5.84615300   -2.59635100    0.77800200
 H                  8.08968000   -2.83171700   -0.33337800
 H                  7.29662400   -3.24615300   -1.84152000
 H                  6.28598000   -5.27296300   -0.75081500
 H                  7.08415300   -4.85913900    0.75494100
 H                  9.32070300   -5.07878800   -0.37307900
 H                  8.52002900   -5.49747100   -1.87570400
 H                  7.52902300   -7.52927500   -0.78024100
 H                  8.33359300   -7.11014200    0.72148100
 H                 10.57232400   -7.32085700   -0.42094000
 H                  9.76290500   -7.74840000   -1.92114100
 H                  8.80131000   -9.78272600   -0.83243400
 H                  9.62105800   -9.35015500    0.68269400
 O                 10.87475700   -9.86108600   -0.89064900
 C                 11.10627000  -11.18559500   -0.63116000
 C                 10.23906100  -12.02335800    0.07503100
 C                 12.30715300  -11.70718800   -1.12213000
 C                 10.58287400  -13.36175100    0.28163300
 H                  9.30187700  -11.65234800    0.46931000
 C                 12.62578000  -13.04333200   -0.91167000
 H                 12.97564000  -11.05069900   -1.66765500
 C                 11.77449200  -13.90496400   -0.20585200
 H                  9.89150600  -13.98843700    0.83618100
 H                 13.56179500  -13.42965600   -1.30529400
 C                 12.14819800  -15.36007300    0.01152800
 C                 12.42635400  -15.68816700    1.50676200
 H                 11.73681500  -15.12006100    2.13996700
 H                 13.43262900  -15.33308200    1.75810600
 C                 12.30014000  -17.19460700    1.83081300
 H                 11.27755700  -17.42206000    2.15489200
 H                 12.94780900  -17.45062000    2.67818800
 C                 12.63726500  -18.06254200    0.61517500
 H                 12.63058000  -19.12584100    0.88399500
 H                 13.66349300  -17.84293200    0.29522500
 C                 11.65575100  -17.80060600   -0.54817300
 H                 10.81280400  -18.49816800   -0.48685200
 H                 12.15679500  -18.01421200   -1.50011900
 C                 11.11374700  -16.35194100   -0.56036600
 H                 10.84073400  -16.06074400   -1.58058300
 H                 10.19352400  -16.29127400    0.03218800
 H                 13.07973700  -15.52748500   -0.54160100















