%chk=001.chk
%nproc=8
%mem=30GB
#P UB3LYP/6-311++G(d,p) nosym opt freq

Oxidized

0 1
O                 -1.0647040000      1.7112340000     -1.8264680000
C                 -0.8217770000      0.8627800000     -0.9956220000
C                 -1.8670110000     -0.0365070000     -0.4613970000
C                 -1.5956350000     -0.9729310000      0.4554800000
C                 -0.2326880000     -1.1693980000      0.9944660000
O                  0.0162640000     -2.0169210000      1.8244760000
C                  0.8547140000     -0.2661710000      0.4667680000
C                  0.5791610000      0.6844710000     -0.4641050000
C                  1.5773370000      1.5559810000     -0.9866160000
N                  2.3835780000      2.2641760000     -1.4125250000
C                  2.1633490000     -0.4654730000      0.9928920000
N                  3.2223840000     -0.6305750000      1.4219980000
H                 -2.8618200000      0.1171640000     -0.8638760000
H                 -2.3531520000     -1.6378300000      0.8545280000


