%chk=015-rad.chk
%nproc=8
%mem=30GB
#P UB3LYP/6-311++G(d,p) nosym  opt freq

Radical

-1 2
C                 -1.8200660000      0.3083120000     -1.0856900000
C                 -1.1799350000      0.1391640000      0.3136560000
C                 -1.8798680000     -1.0456530000      1.0071140000
C                 -1.4496650000      1.4053090000      1.1627100000
C                  0.3380590000     -0.0838220000      0.1717270000
C                  0.9481860000     -1.2213600000      0.6260000000
C                  2.3644460000     -1.5115650000      0.5335520000
O                  2.8488070000     -2.5805840000      0.9744610000
C                  3.1562620000     -0.4696470000     -0.1058280000
C                  2.5764240000      0.6840630000     -0.5729640000
Br                 3.6043200000      2.0691670000     -1.4184190000
C                  1.1433520000      0.9621100000     -0.4724080000
O                  0.6513690000      2.0296450000     -0.9124450000
Br                 5.0370150000     -0.8246210000     -0.2433510000
H                 -2.9008050000      0.4687460000     -0.9881670000
H                 -1.6651040000     -0.5925760000     -1.6883990000
H                 -1.3814300000      1.1572230000     -1.6085580000
H                 -1.7606530000     -1.9766480000      0.4454610000
H                 -2.9521250000     -0.8361560000      1.0821180000
H                 -1.5002820000     -1.2083750000      2.0199430000
H                 -1.0306010000      1.2880350000      2.1674480000
H                 -2.5298090000      1.5677360000      1.2632530000
H                 -1.0009500000      2.2823270000      0.6981040000
H                  0.3830520000     -2.0108300000      1.1049940000


