%chk=077-PCM.chk
%nproc=8
%mem=30GB
#P UB3LYP/6-311++G(d,p) SCRF=(PCM,Solvent=n,n-DiMethylFormamide)

Quinone PCM in DMF 

0 1
C                  0.3110660000      1.8087550000     -2.1458290000
C                 -1.1428580000      2.0948220000     -2.0349620000
C                 -2.0428760000      1.1224430000     -1.8427610000
C                 -1.6210410000     -0.2950340000     -1.7309010000
C                 -0.1702340000     -0.5842800000     -1.8360540000
C                  0.7478910000      0.3864920000     -1.9838900000
O                  1.1019290000      2.7010310000     -2.3971250000
O                 -2.4323330000     -1.1890320000     -1.5557010000
C                  3.2770850000      0.7833050000     -1.3912770000
C                  4.4892130000      0.9199060000     -2.0849140000
C                  3.1474070000      1.3104750000     -0.0881910000
C                  4.2486430000      1.9787320000      0.4574150000
C                  5.5599050000      1.6063490000     -1.5306910000
C                  5.4357990000      2.1411040000     -0.2504650000
H                 -1.4203210000      3.1379750000     -2.1406740000
H                 -3.1078730000      1.3133790000     -1.7706060000
H                  0.1166780000     -1.6284110000     -1.7727760000
H                  4.5664390000      0.4849500000     -3.0735280000
H                  4.1726010000      2.3733640000      1.4651220000
H                  6.4818920000      1.7198590000     -2.0887280000
H                  6.2637570000      2.6751770000      0.2022930000
C                  2.2134400000      0.0190010000     -2.1121480000
O                  2.4960340000     -0.9083390000     -2.8490370000
C                  1.9099890000      1.1522740000      0.7669090000
H                  1.5067060000      0.1386290000      0.7344960000
H                  1.1131820000      1.8380510000      0.4627210000
H                  2.1450080000      1.3797840000      1.8081130000





