%chk=334.chk
%nproc=8
%mem=30GB
#P UB3LYP/6-311++G(d,p) nosym opt freq SCRF=(PCM,Solvent=n,n-DiMethylFormamide)

Oxidized

0 1
C                 -1.1483300000      0.3406510000     -2.9901310000
C                 -1.9905490000      0.8155620000     -1.8726550000
C                  0.3021540000      0.3717300000     -2.7094940000
C                  0.7820600000      0.4388360000     -1.4509210000
C                 -0.1990650000      0.2440400000     -0.3384690000
C                 -1.5233560000      0.8850430000     -0.6094600000
C                  0.0481730000     -0.5445570000      0.7576540000
C                 -0.9332520000     -0.7396730000      1.8697930000
C                  1.3725190000     -1.1852290000      1.0290200000
C                 -0.4538350000     -0.6725860000      3.1285370000
C                  1.8392620000     -1.1156400000      2.2923860000
C                  0.9965570000     -0.6410730000      3.4096320000
O                 -1.6009300000      0.1003050000     -4.1027220000
O                  1.4487440000     -0.4006880000      4.5223810000
C                  2.2132080000      0.8634770000     -1.1934930000
C                  2.3300650000      2.4015110000     -1.1145310000
C                  3.7670110000      2.8683130000     -0.8547510000
C                  3.8961460000      4.3925900000     -0.7835320000
C                  2.0855630000     -2.0247810000     -0.0109480000
C                  1.6137030000     -3.4943850000      0.0443360000
C                  2.3128800000     -4.3751000000     -0.9975940000
C                  1.8587530000     -5.8366920000     -0.9455160000
C                 -2.3640870000     -1.1649490000      1.6116790000
C                 -2.4796700000     -2.7028960000      1.5293400000
C                 -3.9163470000     -3.1703340000      1.2692150000
C                 -4.0442060000     -4.6945520000      1.1945230000
C                 -2.2355610000      1.7250210000      0.4306670000
C                 -1.7587140000      3.1931460000      0.3790810000
C                 -2.4576480000      4.0743770000      1.4207460000
C                 -1.9983530000      5.5344860000      1.3725640000
H                 -2.9687910000      1.2023990000     -2.1406080000
H                  0.9559260000      0.4425130000     -3.5731890000
H                 -1.1078720000     -0.7437790000      3.9919940000
H                  2.8175850000     -1.5020790000      2.5606320000
H                  2.8512040000      0.4994020000     -2.0051240000
H                  2.6007620000      0.4501280000     -0.2634080000
H                  1.6772330000      2.7751970000     -0.3170130000
H                  1.9606980000      2.8402620000     -2.0479670000
H                  4.4200080000      2.4826140000     -1.6470570000
H                  4.1279790000      2.4262800000      0.0814080000
H                  3.5734800000      4.8616470000     -1.7181780000
H                  4.9306890000      4.6948630000     -0.6002360000
H                  3.2824250000      4.8047470000      0.0233830000
H                  3.1643250000     -1.9903860000      0.1718570000
H                  1.9138620000     -1.6555910000     -1.0210750000
H                  0.5298080000     -3.5343330000     -0.1151230000
H                  1.7936780000     -3.8938340000      1.0484770000
H                  3.3975760000     -4.3234470000     -0.8436980000
H                  2.1263090000     -3.9693720000     -1.9989260000
H                  2.0625400000     -6.2802910000      0.0339690000
H                  2.3754380000     -6.4396010000     -1.6970340000
H                  0.7839400000     -5.9242610000     -1.1319460000
H                 -2.7522340000     -0.7498990000      0.6825910000
H                 -3.0021710000     -0.8031730000      2.4242700000
H                 -2.1094700000     -3.1434340000      2.4616040000
H                 -1.8269380000     -3.0742090000      0.7306230000
H                 -4.2781750000     -2.7264410000      0.3342700000
H                 -4.5692640000     -2.7870380000      2.0627500000
H                 -3.4305920000     -5.1042980000      0.3862990000
H                 -5.0785920000     -4.9972900000      1.0111050000
H                 -3.7206090000     -5.1655040000      2.1278930000
H                 -2.0672780000      1.3535430000      1.4405280000
H                 -3.3140280000      1.6944760000      0.2454500000
H                 -1.9348090000      3.5949280000     -0.6248200000
H                 -0.6751160000      3.2292090000      0.5414550000
H                 -2.2751420000      3.6661830000      2.4218250000
H                 -3.5420960000      4.0267400000      1.2638560000
H                 -0.9237640000      5.6180080000      1.5621130000
H                 -2.5150260000      6.1378160000      2.1237530000
H                 -2.1979200000      5.9805530000      0.3933300000


