%chk=194-an.chk
%nproc=8
%mem=30GB
#P UB3LYP/6-311++G(d,p) nosym opt freq

Reduced

-3 1
C                  5.0501830000     -2.8934220000     -0.3568530000
C                  5.8211690000     -2.0441230000     -1.1250160000
C                  5.2648880000     -0.8214760000     -1.5969240000
C                  3.7073360000     -2.5912260000     -0.0150590000
C                  3.1528850000     -1.3370920000     -0.4684730000
C                  3.9656760000     -0.4926370000     -1.2714620000
C                  2.9364840000     -3.5157070000      0.7761280000
C                  1.5823660000     -3.1339730000      1.1122330000
C                  1.0394270000     -1.8786200000      0.6582670000
C                  1.8129370000     -0.9526330000     -0.1329740000
C                  0.7676520000     -4.0214250000      1.9074530000
C                 -0.5432580000     -3.6618180000      2.2295950000
C                 -0.3081420000     -1.5567860000      1.0143530000
C                 -1.0620280000     -2.4297650000      1.7749190000
O                  3.4489980000     -4.6429210000      1.1770120000
O                  1.3051020000      0.1828150000     -0.5381160000
O                  1.2965710000     -5.1886080000      2.3261280000
H                  5.4489030000     -3.8326150000      0.0122900000
H                  6.8489980000     -2.3028740000     -1.3763280000
H                  5.8696320000     -0.1531250000     -2.2096100000
H                  2.2396580000     -5.1876420000      1.9523570000
O                 -0.8554330000     -0.3725590000      0.5951270000
H                 -2.0804530000     -2.1731440000      2.0361190000
H                 -0.0992420000      0.0621550000      0.0685150000
H                  3.5183280000      0.4337630000     -1.6164670000
S                 -1.6604550000     -4.7208880000      3.2375240000
O                 -1.8312310000     -6.0062910000      2.4985720000
O                 -1.0204670000     -4.8837370000      4.5760280000
O                 -2.9400630000     -3.9412370000      3.3156330000


