%chk=180-rad.chk
%nproc=8
%mem=30GB
#P UB3LYP/6-311++G(d,p) nosym opt freq

Radical

-1 2
C         -1.41089        1.90120       -4.78104
C         -1.36478        0.52816       -5.02650
C         -1.22842       -0.36516       -3.96496
C         -1.31825        2.38174       -3.46818
C         -1.18163        1.49207       -2.40732
C         -1.13798        0.11358       -2.65669
C         -1.37328        3.83054       -3.21469
C         -1.09374        1.98954       -1.01984
C         -1.22119        4.34120       -1.83764
C         -1.05831        3.45218       -0.77095
C         -1.23910        5.72608       -1.59648
C         -1.09276        6.22980       -0.30653
C         -0.91450        5.35402        0.75921
C         -0.87949        3.97701        0.52095
O         -1.54009        4.62017       -4.14046
O         -1.07121        1.18048       -0.09922
H         -1.51889        2.59192       -5.61558
H         -1.43584        0.15557       -6.04614
H         -1.19294       -1.43579       -4.15483
H         -1.03305       -0.59198       -1.83407
H         -0.79207        5.74237        1.76687
O         -1.40356        6.65784       -2.58687
O         -0.70033        3.16048        1.64108
C          0.60314        2.68475        1.73972
C          0.69046        1.73654        2.89760
O          1.54680        2.99557        1.02302
H         -1.11185        7.30374       -0.13726
H         -1.49392        6.18421       -3.44534
H          0.00303        0.90067        2.74561
H          0.45760        2.26354        3.82613
H          1.70790        1.34086        2.96474





