%chk=041-opt2.chk
%nproc=8
%mem=30GB
#P UB3LYP/6-311++G(d,p) nosym opt freq SCF=YQC Int=Acc2E=11

Oxidized

0 1
C                 16.3756520000      2.9520330000      0.9729340000
C                 15.5665540000      1.9567320000      1.7036950000
C                 16.0066260000      1.3431470000      2.8124860000
C                 17.3738180000      1.6760210000      3.3288400000
C                 18.2104360000      2.6784130000      2.5984150000
C                 17.7397690000      3.2879440000      1.4859490000
O                 15.9294870000      3.4848900000     -0.0339150000
O                 17.7936820000      1.1272990000      4.3367000000
C                 18.5326950000      4.3059200000      0.7167010000
C                 19.5728790000      2.9686600000      3.1644960000
H                 14.5898080000      1.7477700000      1.2823350000
H                 18.8080870000      5.1519880000      1.3543140000
H                 17.9561750000      4.6769330000     -0.1289600000
H                 19.4657860000      3.8732110000      0.3411930000
H                 19.7664960000      2.3460200000      4.0359700000
H                 19.6561320000      4.0192170000      3.4619190000
H                 20.3533820000      2.7858160000      2.4194220000
C                 15.2263770000      0.3108180000      3.5931320000
C                 13.7797680000      0.1788360000      3.2068840000
C                 13.1738300000     -0.8524720000      2.6019240000
C                 11.6843790000     -0.8020530000      2.3288920000
C                 11.3112280000     -0.7366460000      0.8264920000
C                  9.8224330000     -0.7405580000      0.6138850000
C                  9.0463020000      0.2136550000      0.0805430000
C                  7.5492490000      0.0022170000     -0.0248630000
C                  6.7114750000      0.9118600000      0.9082640000
C                  5.2331790000      0.7000250000      0.7322070000
C                  4.3357480000      0.2563140000      1.6238760000
C                  2.8786470000      0.1181790000      1.2317670000
C                 13.8739550000     -2.1152550000      2.1645350000
C                  9.5552890000      1.5285360000     -0.4578030000
C                  4.6660620000     -0.1343450000      3.0442660000
C                  1.9316530000      1.1165120000      1.9441860000
C                  0.4929330000      0.9080190000      1.5598390000
C                 -0.3328120000      1.7379490000      0.9065580000
C                 -1.7561540000      1.3125620000      0.6059900000
C                 -2.0375720000      1.0524200000     -0.8956160000
C                 -3.4743390000      0.6892980000     -1.1507340000
C                 -3.9821140000     -0.4636850000     -1.6092630000
C                 -5.4802000000     -0.6212480000     -1.7768860000
C                 -6.1327750000     -1.5985590000     -0.7666360000
C                 -7.6059510000     -1.7726280000     -1.0128600000
C                 -8.6368350000     -1.4329270000     -0.2258920000
C                -10.0588530000     -1.6895050000     -0.6833360000
C                -10.8585320000     -0.4062750000     -1.0231140000
C                -12.2801110000     -0.7077140000     -1.4097030000
C                -12.8904860000     -0.5172160000     -2.5881070000
C                  0.0434420000      3.1215110000      0.4349780000
C                 -3.1564450000     -1.6651130000     -2.0005370000
C                 -8.4988110000     -0.8022350000      1.1384090000
C                -12.2333110000      0.0938130000     -3.8017830000
C                -14.3427050000     -0.9135690000     -2.7645640000
C                -14.5598120000     -2.1326200000     -3.6964210000
C                -16.0170770000     -2.4500700000     -3.8882600000
C                -16.6959120000     -3.5453010000     -3.5179610000
C                -16.0817360000     -4.7376650000     -2.8256360000
C                -18.1810930000     -3.6508990000     -3.8011430000
C                -19.0756910000     -3.5829290000     -2.5378470000
C                -20.5340110000     -3.7514230000     -2.8633340000
C                -21.5342330000     -2.8741030000     -2.7057890000
C                -21.3831980000     -1.4871610000     -2.1329070000
C                -22.9460000000     -3.2309940000     -3.1042280000
H                 15.3030970000      0.5789030000      4.6535930000
H                 15.7602700000     -0.6409390000      3.5159780000
H                 13.1606480000      1.0337800000      3.4749370000
H                 11.2481610000      0.0642180000      2.8341290000
H                 11.2096510000     -1.6909190000      2.7657950000
H                 11.7402140000     -1.6052610000      0.3124080000
H                 11.7786220000      0.1462070000      0.3846710000
H                  9.3246440000     -1.6485380000      0.9553630000
H                  7.3094030000     -1.0408720000      0.2004650000
H                  7.2300160000      0.1797910000     -1.0607980000
H                  6.9417580000      1.9612050000      0.6867780000
H                  7.0234100000      0.7411780000      1.9411220000
H                  4.8632650000      0.9337890000     -0.2664900000
H                  2.5382390000     -0.9021460000      1.4552960000
H                  2.7752070000      0.2521370000      0.1511400000
H                 14.9267520000     -2.1416820000      2.4444600000
H                 13.8200340000     -2.2387530000      1.0779990000
H                 13.3861860000     -2.9928260000      2.6038970000
H                 10.6396930000      1.6208860000     -0.4087560000
H                  9.1269010000      2.3741540000      0.0905780000
H                  9.2555780000      1.6520980000     -1.5050500000
H                  5.7370930000     -0.1443270000      3.2444720000
H                  4.2734690000     -1.1336280000      3.2649610000
H                  4.2024000000      0.5492490000      3.7639010000
H                  2.2651500000      2.1333570000      1.7251280000
H                  2.0259230000      0.9860470000      3.0291460000
H                  0.0879520000     -0.0613080000      1.8520610000
H                 -2.4494290000      2.0875200000      0.9602100000
H                 -1.9932220000      0.4029690000      1.1652820000
H                 -1.3558500000      0.2761110000     -1.2499900000
H                 -1.7997120000      1.9581990000     -1.4664910000
H                 -4.1852330000      1.4813210000     -0.9134410000
H                 -5.6963920000     -0.9768890000     -2.7934720000
H                 -5.9653840000      0.3540640000     -1.6781300000
H                 -5.9318910000     -1.2411930000      0.2457390000
H                 -5.6468040000     -2.5781220000     -0.8516750000
H                 -7.8482040000     -2.2300860000     -1.9725680000
H                -10.5989000000     -2.2380240000      0.1003310000
H                -10.0496210000     -2.3354850000     -1.5659440000
H                -10.3317660000      0.1358710000     -1.8115060000
H                -10.8673250000      0.2526090000     -0.1463280000
H                -12.8761250000     -1.1518530000     -0.6118880000
H                  1.0631020000      3.4000110000      0.6990690000
H                 -0.6321740000      3.8682320000      0.8687700000
H                 -0.0517930000      3.2096380000     -0.6524680000
H                 -2.0847490000     -1.4985670000     -1.8969780000
H                 -3.3549310000     -1.9402670000     -3.0431770000
H                 -3.4149100000     -2.5390020000     -1.3931320000
H                 -7.4615950000     -0.6613890000      1.4406730000
H                 -8.9886060000     -1.4245360000      1.8967650000
H                 -8.9890770000      0.1764220000      1.1744970000
H                -11.2023900000      0.3968960000     -3.6218800000
H                -12.7910890000      0.9781440000     -4.1320230000
H                -12.2296660000     -0.6050050000     -4.6450300000
H                -14.9048990000     -0.0616150000     -3.1705190000
H                -14.7822700000     -1.1407220000     -1.7890920000
H                -14.0106120000     -2.9852260000     -3.2909630000
H                -14.1176950000     -1.9168070000     -4.6766790000
H                -16.5837640000     -1.6649710000     -4.3897240000
H                -15.0082650000     -4.6350020000     -2.6702340000
H                -16.2510570000     -5.6478270000     -3.4131590000
H                -16.5421850000     -4.9085780000     -1.8467680000
H                -18.3852200000     -4.5971150000     -4.3205020000
H                -18.4826250000     -2.8503100000     -4.4826720000
H                -18.8843800000     -2.6391030000     -2.0223180000
H                -18.7780840000     -4.3793620000     -1.8448610000
H                -20.7887610000     -4.7192410000     -3.2957410000
H                -20.3558080000     -1.2377670000     -1.8695760000
H                -21.9989630000     -1.3742990000     -1.2326150000
H                -21.7396680000     -0.7368100000     -2.8483910000
H                -23.0096220000     -4.2415740000     -3.5127000000
H                -23.3297930000     -2.5328810000     -3.8578500000
H                -23.6246710000     -3.1667430000     -2.2451600000











































































