%chk=266-rad.chk
%nproc=8
%mem=30GB
#P UB3LYP/6-311++G(d,p) nosym opt freq

Radical

-1 2
C         -1.30360        2.87764        0.01792
C         -2.61576        2.39768        0.01584
C         -2.85937        1.02311        0.01477
C         -0.22024        1.98068        0.01895
C         -0.46713        0.59273        0.01790
C         -1.79204        0.12181        0.01580
C          1.18237        2.47065        0.02111
C          2.31386        1.50826        0.02217
C          2.06457        0.17802        0.02120
C          0.68082       -0.34583        0.01904
O          1.41624        3.67044        0.02203
O          0.49817       -1.55395        0.01818
H         -1.13652        3.94747        0.01871
H         -2.00181       -0.94051        0.01495
O          3.58071        2.01398        0.02403
C          4.75309        1.28307        0.02577
C          5.92658        2.21610        0.02688
C          7.17679        1.74765        0.02866
H         -3.44541        3.09284        0.01505
H         -3.87728        0.65511        0.01315
H          2.87671       -0.54143        0.02194
H          4.79834        0.64468       -0.88375
H          4.79594        0.64529        0.93585
H          5.76359        3.29043        0.02619
H          7.37220        0.67933        0.02938
H          8.01529        2.43646        0.02939






