%chk=053-rad-PCM.chk
%nproc=8
%mem=30GB
#P UB3LYP/6-311++G(d,p) SCRF=(PCM,Solvent=n,n-DiMethylFormamide)

Radical PCM in DMF 

-1 2
C                  0.2582730000      1.4625720000     -0.9604870000
C                 -0.9592310000      0.6624240000     -0.9361180000
C                 -0.9155670000     -0.7116040000     -0.8362610000
C                  0.3501210000     -1.4283690000     -0.7501830000
C                  1.5676350000     -0.6282110000     -0.7744580000
C                  1.5239780000      0.7458050000     -0.8743570000
O                  0.2180770000      2.7280630000     -1.0524940000
O                  0.3903380000     -2.6938570000     -0.6581200000
C                  2.7875000000      1.5712960000     -0.8992220000
C                  2.8808730000     -1.3671320000     -0.6855710000
C                 -2.2724790000      1.4013280000     -1.0249850000
C                 -2.1791000000     -1.5370920000     -0.8115030000
H                  3.4329600000      1.3013680000     -1.7452700000
H                  3.3861870000      1.4259750000      0.0094800000
H                  2.5268530000      2.6268760000     -0.9811280000
H                  2.6878720000     -2.4380120000     -0.6158360000
H                  3.4635730000     -1.0567160000      0.1915840000
H                  3.5131800000     -1.1796420000     -1.5632270000
H                 -2.0795300000      2.4723090000     -1.0933190000
H                 -2.9054130000      1.2126320000     -0.1480550000
H                 -2.8545070000      1.0920030000     -1.9029880000
H                 -2.8245130000     -1.2673520000      0.0346400000
H                 -1.9184620000     -2.5926910000     -0.7298300000
H                 -2.7778190000     -1.3915530000     -1.7201520000





