%chk=168-an.chk
%nproc=8
%mem=30GB
#P UB3LYP/6-311++G(d,p) nosym opt freq

Reduced

-2 1
N    -5.0409025882   -0.7133758908   -0.5108509459
C    -3.7368416772   -0.2404151132   -0.2458855773
C    -3.5969199935    0.9711345731    0.4119633837
C    -2.3203131239    1.4349843890    0.6718124786
C    -1.1794162701    0.7559594582    0.3110817572
C     0.1589251057    1.2530340616    0.5893509422
O     0.2741293108    2.3447787315    1.1820679084
C     1.3375503683    0.5014693810    0.1895381525
C     2.6241075708    0.9323064808    0.4315491366
C     3.7455266940    0.2198116187    0.0525388529
N     5.0619471897    0.6941198449    0.3183171503
C     3.5795552575   -0.9737536123   -0.5957241823
C     2.2923272032   -1.4334728934   -0.8533979102
C     1.1717669503   -0.7216260708   -0.4747349023
C    -0.1727356095   -1.2173290539   -0.7523049930
O    -0.3172204476   -2.3152503837   -1.3485680974
C    -1.3638314629   -0.4591217160   -0.3489722285
C    -2.6142568705   -0.9629637648   -0.6303369800
H    -5.7176667678   -0.7416756897    0.2819378730
H    -5.2869532154   -1.0156863005   -1.4736082820
H    -4.4895904356    1.5164979497    0.7018306053
H    -2.1893176401    2.3853058102    1.1879668462
H     2.7642119842    1.8770628811    0.9447415403
H     5.7711909341    0.0719813491    0.7595530346
H     5.3646075613    1.6687765016    0.0854791746
H     4.4584920320   -1.5432875556   -0.8987988232
H     2.1807867688   -2.3832295929   -1.3691061649
H    -2.7591588285   -1.9060353930   -1.1426306192


