%chk=124-an.chk
%nproc=8
%mem=30GB
#P UB3LYP/6-311++G(d,p) nosym opt freq SCRF=(PCM,Solvent=n,n-DiMethylFormamide)

Reduced

-2 1
C                 -4.5661430000      0.2297230000      0.0311060000
C                 -3.1136780000     -0.1830270000     -0.0011990000
C                 -2.7691650000     -1.5614240000     -0.1480530000
C                 -1.4472020000     -1.9519060000     -0.1707140000
C                 -0.3795620000     -1.0256430000     -0.0643420000
C                  0.9867290000     -1.5065460000     -0.1169520000
O                  1.2829480000     -2.7466330000     -0.2606260000
C                  1.9946640000     -0.4724140000      0.0132300000
C                  3.3656050000     -0.8320810000     -0.0209290000
C                  4.3767070000      0.1004960000      0.0932620000
C                  4.0472050000      1.4768640000      0.2500370000
C                  2.7221230000      1.8602570000      0.2892590000
C                  1.6587060000      0.9281190000      0.1792990000
C                  0.2906090000      1.4068080000      0.2273900000
O                 -0.0009770000      2.6489970000      0.3664090000
C                 -0.7152050000      0.3720040000      0.1011880000
C                 -2.0895540000      0.7325610000      0.1295530000
H                 -5.1224300000     -0.2593320000      0.8512360000
H                 -5.0916510000     -0.0395490000     -0.8932560000
H                 -4.6707760000      1.3108690000      0.1661620000
H                 -3.5609770000     -2.3032220000     -0.2468840000
H                 -1.1716790000     -2.9960350000     -0.2842040000
H                  3.5826880000     -1.8890540000     -0.1428760000
H                  5.4192920000     -0.2119730000      0.0631120000
H                  4.8373010000      2.2208210000      0.3391330000
H                  2.4379430000      2.9014850000      0.4081510000
H                 -2.3035220000      1.7898350000      0.2589930000


