%chk=068-PCM.chk
%nproc=8
%mem=30GB
#P UB3LYP/6-311++G(d,p) SCRF=(PCM,Solvent=n,n-DiMethylFormamide)

Quinone PCM in DMF 

0 1
C                  0.8264430000      1.0826010000     -1.5373460000
C                 -0.4140170000      0.3154500000     -1.7961890000
C                 -0.6689000000     -0.8283590000     -1.1547370000
C                  0.2738540000     -1.3769750000     -0.1562960000
C                  1.4917080000     -0.5604630000      0.2144930000
C                  1.7099270000      0.6019680000     -0.4294540000
O                  1.1176510000      2.0418070000     -2.2256150000
O                  0.0755840000     -2.4630000000      0.3538980000
S                  3.0998780000      1.7041280000      0.0328360000
C                  4.2274830000      1.6434200000     -1.3625790000
C                  5.0890830000      0.5524650000     -1.4779790000
C                  4.2337470000      2.6967960000     -2.2734370000
C                  5.1367200000      2.6529150000     -3.3324480000
C                  5.9785020000      0.5204550000     -2.5487280000
C                  6.0029530000      1.5681320000     -3.4698850000
O                  3.7480150000      1.0392630000      1.1699510000
O                  2.5655080000      3.0561170000      0.1796350000
H                 -1.0678220000      0.7258420000     -2.5575280000
H                 -1.5506190000     -1.4297360000     -1.3454100000
H                  5.0647220000     -0.2464190000     -0.7467610000
H                  3.5448020000      3.5212700000     -2.1478440000
H                  5.1621930000      3.4651270000     -4.0492970000
H                  6.6562940000     -0.3179560000     -2.6573830000
H                  6.7015550000      1.5391790000     -4.2984770000
C                  2.4471650000     -1.2800580000      1.1909940000
O                  3.2959790000     -1.9552880000      0.6582340000
C                  2.2197400000     -1.2539270000      2.7120960000
C                  1.2675310000     -0.1242900000      3.1363520000
C                  1.6238520000     -2.6281870000      3.1153290000
C                  3.5882540000     -1.0957970000      3.4090270000
H                  0.2782900000     -0.2243010000      2.6786590000
H                  1.6734580000      0.8575910000      2.8864270000
H                  1.1228670000     -0.1598880000      4.2193330000
H                  0.6395990000     -2.7960250000      2.6790330000
H                  1.5337920000     -2.6617600000      4.2046120000
H                  2.2808010000     -3.4403760000      2.7978640000
H                  4.0306950000     -0.1239000000      3.1956280000
H                  4.2796130000     -1.8734660000      3.0801950000
H                  3.4503140000     -1.1923460000      4.4895860000





