%chk=085-PCM.chk
%nproc=8
%mem=30GB
#P UB3LYP/6-311++G(d,p) SCRF=(PCM,Solvent=n,n-DiMethylFormamide)

Quinone PCM in DMF 

0 1
C                 -3.5742300000      0.6914310000     -0.1489240000
O                 -2.7922350000     -0.4998200000     -0.0352670000
C                 -1.4709800000     -0.3871510000      0.0614320000
C                 -0.7564540000      0.7617950000      0.0645500000
C                  0.6967180000      0.7679510000      0.1986790000
O                  1.3261770000      1.8145430000      0.2630710000
C                  1.3993910000     -0.5731630000      0.2705490000
C                  0.6744560000     -1.7164350000      0.2781490000
C                 -0.7775460000     -1.7331110000      0.1769320000
O                 -1.4283430000     -2.7624900000      0.1734470000
O                  2.7286440000     -0.6735230000      0.3915980000
C                  3.6587170000      0.3968140000      0.1230270000
H                 -4.6071860000      0.3581710000     -0.2149800000
H                 -3.3029580000      1.2473870000     -1.0509180000
H                 -3.4422300000      1.3258090000      0.7322130000
H                 -1.2093750000      1.7415370000     -0.0049030000
H                  1.1669970000     -2.6779430000      0.3522000000
H                  3.4566560000      0.8619340000     -0.8415570000
H                  3.6242450000      1.1523640000      0.9050780000
H                  4.6295340000     -0.0961010000      0.1074190000





