%chk=244-an.chk
%nproc=8
%mem=30GB
#P UB3LYP/6-311++G(d,p) nosym opt freq

Reduced

-2 1
C                  5.7131720000     -5.3389310000      1.2152540000
C                  6.6616840000     -5.1851540000      0.2119090000
C                  6.5856760000     -4.1305170000     -0.7281830000
C                  4.6115780000     -4.4218560000      1.3190680000
C                  4.5536910000     -3.3306610000      0.3593600000
C                  5.5459380000     -3.2301300000     -0.6426900000
C                  3.5814150000     -4.5537140000      2.3500820000
C                  2.5722450000     -3.5420320000      2.3434090000
C                  2.5429390000     -2.4961960000      1.4093800000
C                  3.4998730000     -2.3155530000      0.3789740000
O                  3.5586560000     -5.5052510000      3.2290660000
O                  3.4576340000     -1.3463620000     -0.4737990000
C                  5.8839770000     -6.5161220000      2.1564290000
H                  7.4764650000     -5.9052910000      0.1441160000
C                  1.5078810000     -3.6405270000      3.4062640000
H                  1.7388100000     -1.7599410000      1.4589500000
H                  5.4430540000     -2.4020930000     -1.3371940000
H                  7.3444800000     -4.0387720000     -1.5045230000
H                  6.8060220000     -7.0604910000      1.9065520000
H                  5.0301960000     -7.1964420000      2.1019280000
H                  5.9197170000     -6.1981160000      3.1996570000
H                  1.9455430000     -3.6169460000      4.4154900000
H                  0.9687870000     -4.5970530000      3.3492430000
H                  0.7842090000     -2.8204390000      3.3156600000


