%chk=332-an.chk
%nproc=8
%mem=30GB
#P UB3LYP/6-311++G(d,p) nosym opt freq

Reduced

-2 1
C     3.3040603094    2.7750738490    0.0407211503
C     2.6993227926    1.4354437274    0.0710601209
C     1.3841331432    1.3104409193    0.0130268578
C     0.6779931413    0.0342782832    0.0356437116
C     1.5069696484   -1.1487231200    0.1283425068
C     2.8540061188   -1.1034342859    0.1914598184
C     3.6573090349   -2.3492747262    0.2857129816
C     3.4753208833    0.2123938878    0.1629781314
O     4.7257570561    0.2912397739    0.2199299157
C    -0.6518138454   -0.0404959711   -0.0253162212
C    -1.3554127572   -1.3156359860   -0.0026233730
C    -2.6986711951   -1.3980139829   -0.0638844185
C    -3.3694737257   -2.7180924086   -0.0376079158
C    -3.5243405108   -0.2072309509   -0.1567424264
O    -4.7896942866   -0.2893058907   -0.2142532940
C    -2.8422299113    1.0695769919   -0.1805474844
C    -1.5013262375    1.1430625052   -0.1190043874
C    -3.6479438145    2.3094964863   -0.2746317524
H     4.2939678144    2.7280605112    0.5652909599
H     2.6529733520    3.5615466636    0.4686969323
H     3.5619033908    3.0059757173   -1.0319582065
H     0.8158572578    2.2149012720   -0.0546786369
H     1.0863592927   -2.1353021502    0.1518956970
H     3.1056597893   -3.1455058430    0.8437398031
H     3.9248893722   -2.7312146247   -0.7256233662
H     4.6163389033   -2.1539551998    0.8110686829
H    -0.7833294087   -2.2262113064    0.0655099195
H    -3.7226583693   -2.8887492212    0.9972480262
H    -4.2489633949   -2.7470594923   -0.7101378464
H    -2.6710958010   -3.5281792819   -0.3807283586
H    -1.0558248792    2.1260885702   -0.1411799913
H    -3.1163536450    3.0538420654   -0.9358678398
H    -4.6356735359    2.0892303950   -0.7306917648
H    -3.7280159824    2.7657328232    0.7331520682


