%chk=333-rad-PCM.chk
%nproc=8
%mem=30GB
#P UB3LYP/6-311++G(d,p) SCRF=(PCM,Solvent=n,n-DiMethylFormamide)

Radical PCM in DMF 

-1 2
C                 -1.22848800    2.19008800   -2.93431600
 C                 -2.15329500    2.11729100   -1.81503500
 C                  0.15770400    2.02066600   -2.53028800
 C                  0.52020500    1.49179000   -1.32080300
 C                 -0.51515400    0.90017100   -0.45543900
 C                 -1.80951000    1.58898100   -0.59982700
 C                 -0.29436500   -0.21678900    0.40825700
 C                 -1.32980000   -0.80871300    1.27330400
 C                  1.00004100   -0.90546900    0.55274500
 C                  1.34368500   -1.43386600    1.76795500
 C                  0.41869000   -1.50686800    2.88707300
 C                 -0.96745100   -1.33769900    2.48278500
 O                 -1.57011700    2.54009000   -4.08545600
 O                  0.76015000   -1.85707200    4.03820100
 C                  1.92891000    1.78740900   -0.78137400
 C                  1.89804700    3.14140900   -0.03643500
 C                  3.03895300    1.81550600   -1.84422900
 C                  1.83217400   -1.29388000   -0.67995300
 C                  1.28595700   -2.62505100   -1.24466000
 C                  3.34253700   -1.42860300   -0.42833600
 C                 -2.73824200   -1.10474700    0.73341300
 C                 -3.84861100   -1.13322600    1.79591800
 C                 -2.70670900   -2.45870500   -0.01158000
 C                 -2.64141600    1.97771300    0.63292300
 C                 -2.09460200    3.30863300    1.19763900
 C                 -4.15171400    2.11315300    0.38129400
 H                 -3.10739300    2.61014500   -1.96451200
 H                  0.89540100    2.44287300   -3.20338400
 H                  2.29781900   -1.92660300    1.91756600
 H                 -1.70519900   -1.76021400    3.15562900
 H                  2.19195800    1.04464800   -0.03180300
 H                  2.88218900    3.36159600    0.39319700
 H                  1.17166100    3.12463400    0.77819900
 H                  1.62770800    3.95495900   -0.71614900
 H                  3.06163700    0.90047400   -2.44061800
 H                  4.01539000    1.92969800   -1.36235500
 H                  2.91602900    2.65733000   -2.53141700
 H                  1.68048300   -0.55649300   -1.46487500
 H                  1.38760300   -3.43104700   -0.51185300
 H                  1.83577600   -2.90840900   -2.14966200
 H                  0.23002000   -2.53633700   -1.50670500
 H                  3.56661100   -2.27420000    0.22798100
 H                  3.76571300   -0.53157400    0.02961000
 H                  3.86513500   -1.60446600   -1.37418700
 H                 -3.00129100   -0.36204400   -0.01621300
 H                 -4.82486300   -1.24766000    1.31372700
 H                 -3.87173900   -0.21824000    2.39236300
 H                 -3.72567000   -1.97506200    2.48308900
 H                 -3.69063400   -2.67917200   -0.44156300
 H                 -2.43635700   -3.27220900    0.66818500
 H                 -1.98004700   -2.44166200   -0.82596600
 H                 -2.49004900    1.24024300    1.41783100
 H                 -2.64432700    3.59225300    2.10261700
 H                 -2.19583300    4.11467900    0.46482800
 H                 -1.03872300    3.21941900    1.45974000
 H                 -4.67423400    2.28931300    1.32713100
 H                 -4.57532300    1.21631300   -0.07661700
 H                 -4.37537200    2.95882800   -0.27507000





