%chk=156-PCM.chk
%nproc=8
%mem=30GB
#P UB3LYP/6-311++G(d,p) SCRF=(PCM,Solvent=n,n-DiMethylFormamide)

Quinone PCM in DMF 

0 1
C                 -1.8409430000      1.9087610000     -5.1580670000
C                 -1.7587510000      0.5834440000     -5.5610990000
C                 -1.3482190000     -0.4008790000     -4.6545220000
C                 -1.5141790000      2.2666880000     -3.8437470000
C                 -1.1033480000      1.2811110000     -2.9353400000
C                 -1.0227980000     -0.0544990000     -3.3506810000
C                 -1.6050830000      3.6899720000     -3.4339000000
C                 -0.7532250000      1.6280250000     -1.5348260000
C                 -1.2566440000      4.0408800000     -2.0530100000
C                 -0.8442370000      3.0265670000     -1.1169430000
C                 -1.3416620000      5.3926250000     -1.6442490000
C                 -1.0223220000      5.7063290000     -0.2962680000
C                 -0.6343970000      4.7503000000      0.5974120000
C                 -0.5257690000      3.3792340000      0.2245390000
O                 -1.9720130000      4.5348250000     -4.2653250000
O                 -0.3971720000      0.7183280000     -0.7647090000
N                 -1.6941170000      6.4085570000     -2.4812280000
N                 -0.1294020000      2.4600210000      1.1436340000
C                  0.2057330000      2.7547330000      2.5197590000
H                 -2.1547800000      2.6884600000     -5.8404190000
H                 -2.0125230000      0.3105460000     -6.5793460000
H                 -1.2842570000     -1.4360110000     -4.9710510000
H                 -0.7031920000     -0.7981160000     -2.6318270000
H                 -1.0876170000      6.7417660000      0.0236410000
H                 -0.4020810000      5.0441120000      1.6124510000
H                 -1.9910580000      6.1649010000     -3.4190860000
H                 -1.8565720000      7.3269190000     -2.1054940000
H                 -0.0803420000      1.5070500000      0.7921950000
H                 -0.6406340000      3.1818620000      3.0712680000
H                  1.0536800000      3.4454440000      2.6018980000
H                  0.4860740000      1.8216140000      3.0078210000





