%chk=334-rad-PCM.chk
%nproc=8
%mem=30GB
#P UB3LYP/6-311++G(d,p) SCRF=(PCM,Solvent=n,n-DiMethylFormamide)

Radical PCM in DMF 

-1 2
 C                 -1.08945800    0.77870100   -3.07143600
 C                 -1.92007800    1.07547300   -1.91622900
 C                  0.31703400    0.64333100   -2.73089800
 C                  0.76079900    0.47963700   -1.44544800
 C                 -0.20737700    0.24853200   -0.36801100
 C                 -1.48869300    0.91422700   -0.62624700
 C                  0.05911100   -0.54969400    0.78728800
 C                 -0.90907700   -0.78095800    1.86468300
 C                  1.34046000   -1.21532600    1.04550200
 C                 -0.46532400   -0.94474100    3.15012700
 C                  1.77182600   -1.37665300    2.33548000
 C                  0.94116900   -1.08001600    3.49068900
 O                 -1.51316500    0.80446500   -4.24861600
 O                  1.36484400   -1.10589200    4.66788100
 C                  2.22641500    0.79659900   -1.16403100
 C                  2.49822400    2.31245900   -1.25636200
 C                  3.95583100    2.67505700   -0.94949200
 C                  4.23540200    4.17887900   -1.03988400
 C                  2.10026000   -1.96244600   -0.04639200
 C                  1.84770600   -3.48211600    0.03701500
 C                  2.57061500   -4.26646000   -1.06410900
 C                  2.32600000   -5.77718000   -0.98883500
 C                 -2.37466400   -1.09803300    1.58321300
 C                 -2.64638800   -2.61390200    1.67555400
 C                 -4.10395700   -2.97658800    1.36859600
 C                 -4.38345000   -4.48042400    1.45900800
 C                 -2.24835200    1.66158600    0.46557400
 C                 -1.99560700    3.18121600    0.38192600
 C                 -2.71836400    3.96581900    1.48296300
 C                 -2.47354900    5.47649500    1.40745400
 H                 -2.87996700    1.54297500   -2.12042000
 H                  1.02532100    0.78849200   -3.54261700
 H                 -1.17361500   -1.09003600    3.96181700
 H                  2.73174900   -1.84409200    2.53965200
 H                  2.87547800    0.28020200   -1.88136300
 H                  2.52203500    0.46990900   -0.16903100
 H                  1.83743400    2.83538100   -0.55465500
 H                  2.23088600    2.67329800   -2.25564400
 H                  4.61564400    2.13983800   -1.64452000
 H                  4.21544000    2.31559500    0.05358600
 H                  4.01533000    4.56182200   -2.04191200
 H                  5.28255400    4.40825000   -0.81766100
 H                  3.61523300    4.73762000   -0.33147300
 H                  3.17804000   -1.78108300    0.04309100
 H                  1.79965300   -1.63365600   -1.03919800
 H                  0.76910100   -3.66727100   -0.03217300
 H                  2.15969900   -3.85285100    1.01958500
 H                  3.64847400   -4.06874000   -1.00079300
 H                  2.25046000   -3.89370200   -2.04459400
 H                  2.66582400   -6.18497400   -0.03104000
 H                  2.85452700   -6.31120400   -1.78508100
 H                  1.26013500   -6.00838000   -1.08436200
 H                 -2.67023100   -0.77137300    0.58818300
 H                 -3.02381600   -0.58166000    2.30047900
 H                 -2.37909900   -2.97471700    2.67485700
 H                 -1.98552200   -3.13680500    0.97390200
 H                 -4.36352300   -2.61716400    0.36549400
 H                 -4.76384400   -2.44139000    2.06357000
 H                 -3.76320300   -5.03914800    0.75065100
 H                 -5.43057500   -4.70985900    1.23672100
 H                 -4.16342300   -4.86333000    2.46105900
 H                 -1.94774900    1.33291400    1.45841700
 H                 -3.32615800    1.48034800    0.37615000
 H                 -2.30759700    3.55183800   -0.60068700
 H                 -0.91697500    3.36623900    0.45104000
 H                 -2.39821500    3.59316400    2.46349000
 H                 -3.79625300    3.76823500    1.41972400
 H                 -1.40764900    5.70756600    1.50290100
 H                 -3.00197000    6.01070800    2.20364500
 H                 -2.81336100    5.88419200    0.44961400





