%chk=004-rad.chk
%nproc=8
%mem=30GB
#P UB3LYP/6-311++G(d,p) nosym  opt freq

Radical

-1 2
C                 -1.3088350000      1.9871780000      0.3502070000
C                 -2.5292620000      1.2080860000      0.2732190000
C                 -2.6375510000     -0.1288230000     -0.0336810000
C                 -1.4088260000     -0.8776130000     -0.3187230000
C                 -0.1682440000     -0.1198590000     -0.2492190000
C                 -0.1230050000      1.2047560000      0.0602100000
Br                 1.5879600000      2.1150310000      0.1244310000
C                 -4.0560460000     -0.7537700000     -0.0565930000
C                 -4.9222440000     -0.0105960000     -1.1037520000
C                 -4.7067160000     -0.5892180000      1.3393790000
C                 -4.1075680000     -2.2557070000     -0.4077190000
O                 -1.3096310000      3.2091930000      0.6394180000
O                 -1.3609300000     -2.1037370000     -0.6130960000
H                 -3.4160360000      1.7958760000      0.4904900000
H                  0.7333740000     -0.6813190000     -0.4616830000
H                 -4.9998350000      1.0571130000     -0.8866170000
H                 -5.9358740000     -0.4290460000     -1.1258580000
H                 -4.4886670000     -0.1169250000     -2.1024620000
H                 -4.7773380000      0.4595770000      1.6364170000
H                 -4.1179500000     -1.1118040000      2.0989640000
H                 -5.7182330000     -1.0133510000      1.3407100000
H                 -3.6921020000     -2.4586950000     -1.3943910000
H                 -5.1574110000     -2.5779000000     -0.3912510000
H                 -3.5422700000     -2.8600960000      0.3011070000


