%chk=327-rad.chk
%nproc=8
%mem=30GB
#P UB3LYP/6-311++G(d,p) nosym  opt freq SCRF=(PCM,Solvent=n,n-DiMethylFormamide)

Radical

-3 2
C                 -1.6861420000      2.9402020000     -0.7223270000
C                 -2.8241080000      2.2277420000     -0.4109430000
C                 -2.7162350000      0.8880800000      0.0082870000
C                 -0.3996630000      2.3657870000     -0.6343140000
C                 -0.2825550000      1.0032830000     -0.2085600000
C                 -1.4706230000      0.2857640000      0.1081040000
C                  0.7582980000      3.2098380000     -0.9890510000
C                  2.1016740000      2.5872560000     -0.8899530000
C                  2.1482740000      1.2075620000     -0.4532910000
C                  1.0586740000      0.4457980000     -0.1299260000
O                  0.6067070000      4.4050800000     -1.3587620000
O                  3.1594900000      3.2235600000     -1.1710320000
H                 -1.7416630000      3.9736710000     -1.0477960000
H                 -3.8059220000      2.6823060000     -0.4835720000
S                 -4.2880610000      0.0315500000      0.3988260000
H                 -1.4029260000     -0.7447910000      0.4314820000
H                  3.1316820000      0.7574760000     -0.3823590000
S                  1.3944830000     -1.2872290000      0.3977580000
O                  2.8817840000     -1.4440270000      0.3381250000
O                  0.6870180000     -2.1578550000     -0.5854010000
O                  0.8617840000     -1.4018380000      1.7863560000
O                 -4.9098060000      0.8425220000      1.4948680000
O                 -3.9448370000     -1.3546970000      0.8093510000
O                 -5.0905540000      0.0989000000     -0.8649490000


