%chk=310.chk
%nproc=8
%mem=30GB
#P UB3LYP/6-311++G(d,p) nosym opt freq SCRF=(PCM,Solvent=n,n-DiMethylFormamide)

Oxidized

0 1
O                 -2.2273630000     -2.0396930000      0.2040590000
C                 -1.6508020000     -0.8383400000      0.0995620000
C                 -2.4956560000      0.2961980000      0.0305500000
C                 -1.9700210000      1.5587960000     -0.0774920000
C                 -0.5689460000      1.7603920000     -0.1227990000
O                 -0.1226550000      3.0158320000     -0.2285220000
C                  0.2868640000      0.6504760000     -0.0559700000
C                  1.7336750000      0.8445570000     -0.1017420000
O                  2.2466250000      1.9716410000     -0.1988980000
C                  2.5923560000     -0.3521660000     -0.0284920000
C                  2.0780160000     -1.5877770000      0.0772240000
C                  0.6230440000     -1.8234390000      0.1264960000
O                  0.1846660000     -2.9814900000      0.2245460000
C                 -0.2594490000     -0.6618400000      0.0563310000
H                 -1.5011520000     -2.7104970000      0.2401320000
H                 -3.5664890000      0.1359620000      0.0656540000
H                 -2.6113770000      2.4302490000     -0.1306560000
H                  0.8655980000      2.9741990000     -0.2463300000
H                  3.6607120000     -0.1704080000     -0.0652950000
H                  2.7023510000     -2.4726510000      0.1316440000


