%chk=155-an.chk
%nproc=8
%mem=30GB
#P UB3LYP/6-311++G(d,p) nosym opt freq SCF=YQC

Reduced

-2 1
C         -2.25793        3.24538        4.13277
C         -3.53969        2.74473        4.32742
C         -3.97083        1.63847        3.59622
C         -3.12101        1.01292        2.67195
C         -1.81579        1.51684        2.48059
C         -1.39953        2.63728        3.20636
C         -0.05057        3.20903        3.02252
C         -0.84861        0.87990        1.54630
C          0.80486        2.72147        1.91734
C          0.41543        1.57585        1.22267
C          2.02234        3.36420        1.59950
C          2.79202        2.86458        0.53974
C          2.41052        1.71075       -0.14325
C          1.22646        1.06472        0.19940
O          0.35015        4.07332        3.79796
O         -1.04810       -0.21762        1.03938
N          2.37899        4.61337        2.14215
O         -3.51267       -0.05047        1.90494
C         -4.72308       -0.71622        2.23607
H         -1.93070        4.11428        4.70191
H         -4.20725        3.22062        5.04235
H         -4.98606        1.29128        3.76358
H          3.69737        3.38378        0.23247
H          3.02619        1.32742       -0.95346
H          0.92915        0.16858       -0.34351
H          1.90319        4.78904        3.03635
H          3.37784        4.77909        2.20082
H         -4.80041       -1.60468        1.60199
H         -5.58875       -0.08074        2.02377
H         -4.72283       -1.05034        3.27894






