%chk=187.chk
%nproc=8
%mem=30GB
#P UB3LYP/6-311++G(d,p) nosym opt freq

Oxidized

0 1
O                 -2.2904410000     -2.6671840000     -0.4306040000
C                 -2.3536470000     -1.3349040000     -0.2024860000
C                 -3.5969390000     -0.7012440000     -0.0805830000
C                 -3.6837110000      0.6629500000      0.1532570000
C                 -2.5257630000      1.4241780000      0.2704470000
C                 -1.2813620000      0.8114240000      0.1521170000
C                 -0.0721230000      1.6855080000      0.2880980000
O                 -0.1902380000      2.8824970000      0.4938230000
C                  1.2644920000      1.0471180000      0.1648970000
C                  2.3990130000      1.8395530000      0.2882720000
C                  3.6638150000      1.2560500000      0.1752510000
C                  3.7979050000     -0.1018740000     -0.0581220000
C                  2.6615680000     -0.9171180000     -0.1854200000
O                  2.8553530000     -2.2217290000     -0.4104090000
C                  1.3700340000     -0.3416170000     -0.0734250000
C                  0.1790490000     -1.1996290000     -0.2073310000
O                  0.3128740000     -2.4121480000     -0.4157670000
C                 -1.1631230000     -0.5780880000     -0.0864170000
H                 -3.1855940000     -3.0219910000     -0.4812860000
H                 -4.5003720000     -1.2975080000     -0.1724130000
H                 -4.6572730000      1.1307330000      0.2438560000
H                 -2.5622000000      2.4898330000      0.4527740000
H                  2.2785010000      2.8992340000      0.4705770000
H                  4.5512620000      1.8714280000      0.2710070000
H                  4.7708410000     -0.5695550000     -0.1482890000
H                  1.9580800000     -2.6359180000     -0.4718240000


