%chk=131.chk
%nproc=8
%mem=30GB
#P UB3LYP/6-311++G(d,p) nosym opt freq

Oxidized

0 1
C                 -4.8442590000      1.1381150000     -1.5692540000
C                 -3.6209400000      0.5970880000     -0.8732490000
C                 -3.7428480000     -0.2514430000      0.2310480000
C                 -2.6447350000     -0.7597620000      0.9284520000
C                 -2.9117530000     -1.6668160000      2.1044380000
C                 -1.3478440000     -0.3941490000      0.4860710000
C                 -0.1229280000     -0.8854900000      1.1643750000
O                 -0.1705130000     -1.6231140000      2.1394880000
C                  1.2138880000     -0.4573780000      0.6295560000
C                  2.3396570000     -0.9410920000      1.2946560000
C                  3.6209460000     -0.5970780000      0.8732490000
C                  4.8442580000     -1.1381740000      1.5692120000
C                  3.7428510000      0.2514960000     -0.2310100000
C                  2.6447340000      0.7598020000     -0.9284260000
C                  2.9117520000      1.6669060000     -2.1043730000
C                  1.3478490000      0.3941390000     -0.4860830000
C                  0.1229330000      0.8854410000     -1.1644150000
O                  0.1705180000      1.6230210000     -2.1395610000
C                 -1.2138830000      0.4573430000     -0.6295830000
C                 -2.3396540000      0.9410660000     -1.2946810000
H                 -5.6390030000      0.3896980000     -1.6177520000
H                 -5.2442060000      2.0040760000     -1.0304990000
H                 -4.6128520000      1.4609320000     -2.5859100000
H                 -4.7367650000     -0.5333630000      0.5656950000
H                 -2.4514690000     -2.6473320000      1.9693220000
H                 -2.4882330000     -1.2648430000      3.0267120000
H                 -3.9883580000     -1.7953810000      2.2352900000
H                  2.1876370000     -1.5897290000      2.1485870000
H                  5.2436620000     -2.0046400000      1.0308610000
H                  4.6130300000     -1.4602890000      2.5861310000
H                  5.6393350000     -0.3900710000      1.6170000000
H                  4.7367650000      0.5334690000     -0.5656210000
H                  3.9883550000      1.7955550000     -2.2351600000
H                  2.4513880000      2.6473850000     -1.9692590000
H                  2.4883130000      1.2649250000     -3.0266810000
H                 -2.1876300000      1.5896870000     -2.1486220000


