%chk=062-an.chk
%nproc=8
%mem=30GB
#P UB3LYP/6-311++G(d,p) nosym opt freq SCRF=(PCM,Solvent=n,n-DiMethylFormamide)

Reduced

-2 1
C                 -1.7108190000     -2.4116760000      1.2050770000
C                 -2.2710770000     -2.1668160000     -0.1192970000
C                 -1.7314740000     -1.1043260000     -0.9199650000
C                 -0.6659440000     -0.2480580000     -0.5587640000
C                 -0.1249350000     -0.5404480000      0.7499650000
C                 -0.6147280000     -1.5428180000      1.5588180000
O                 -2.1014410000     -3.3154900000      2.0424480000
O                 -0.1979120000      0.7169080000     -1.2932540000
C                 -3.3586790000     -2.9890420000     -0.6484330000
C                 -4.0555030000     -3.9577280000      0.1385520000
C                 -3.8092050000     -2.8853510000     -2.0014480000
C                 -4.8510280000     -3.6535640000     -2.5071490000
C                 -5.0953410000     -4.7219500000     -0.3779910000
C                 -5.5220530000     -4.5891580000     -1.7083030000
H                 -2.1694260000     -0.8920620000     -1.8906480000
H                  0.7027330000      0.0851160000      1.0897730000
H                 -0.1799880000     -1.7220660000      2.5425300000
H                 -3.7206790000     -4.0758050000      1.1617810000
H                 -3.3177990000     -2.1907150000     -2.6702480000
H                 -5.1416060000     -3.5250430000     -3.5494850000
H                 -5.5888880000     -5.4421870000      0.2744230000
H                 -6.3351280000     -5.1914640000     -2.1066620000


