%chk=307-an-PCM.chk
%nproc=8
%mem=30GB
#P UB3LYP/6-311++G(d,p) SCRF=(PCM,Solvent=n,n-DiMethylFormamide)

Reduced 

-2 1
C                 -3.3629870000     -0.7027020000     -0.3595800000
C                 -1.9395960000     -0.2882270000     -0.0946550000
C                 -1.6491180000      0.7239620000      0.8513850000
C                 -0.3582200000      1.1352950000      1.1256390000
O                 -0.1233580000      2.1297060000      2.0596770000
C                  0.7308180000      0.5239370000      0.4353250000
C                  2.1059040000      0.9461850000      0.7120640000
O                  2.3493370000      1.8830590000      1.5903550000
C                  3.1311370000      0.2980870000     -0.0080230000
C                  2.8439890000     -0.7113300000     -0.9517780000
C                  1.5462100000     -1.1101190000     -1.2130800000
C                  0.4586220000     -0.5041670000     -0.5278910000
C                 -0.9112370000     -0.9450710000     -0.8229920000
O                 -1.1617140000     -1.8699370000     -1.6887850000
H                 -4.0658300000     -0.1250850000      0.2563500000
H                 -3.5199200000     -1.7733060000     -0.1561030000
H                 -3.6351230000     -0.5688970000     -1.4178960000
H                 -2.4639530000      1.2068260000      1.3921770000
H                  0.8868100000      2.2154780000      2.0472120000
H                  4.1561850000      0.6052900000      0.1910680000
H                  3.6706690000     -1.1849800000     -1.4852510000
H                  1.3113770000     -1.8840050000     -1.9352190000





