%chk=269-an-PCM.chk
%nproc=8
%mem=30GB
#P UB3LYP/6-311++G(d,p) SCRF=(PCM,Solvent=n,n-DiMethylFormamide)

Reduced 

-2 1
N                 -3.3657440000     -0.8787750000      0.0743180000
C                 -2.0651630000     -0.2862540000      0.0913590000
C                 -1.8956470000      1.0726470000      0.3957700000
C                 -0.6334460000      1.7274930000      0.4231190000
O                 -0.4822920000      2.9763120000      0.6961430000
C                  0.4992480000      0.8548800000      0.0934020000
C                  1.8070960000      1.3799570000      0.0742830000
C                  2.9173020000      0.5990400000     -0.2101490000
C                  2.7413680000     -0.7817540000     -0.4847870000
C                  1.4717210000     -1.3281960000     -0.4813990000
C                  0.3143070000     -0.5491780000     -0.2168690000
C                 -0.9895670000     -1.1676500000     -0.2191860000
O                 -1.2002670000     -2.4335660000     -0.4513690000
H                 -3.8823630000     -0.6695110000      0.9274650000
H                 -3.2016850000     -1.8863900000      0.0048550000
H                 -2.7751060000      1.6855900000      0.5951000000
H                  1.9052630000      2.4386860000      0.2976060000
H                  3.9152910000      1.0351770000     -0.2177280000
H                  3.6074680000     -1.4061300000     -0.7040190000
H                  1.3122180000     -2.3823790000     -0.6879140000





