%chk=235.chk
%nproc=8
%mem=30GB
#P UB3LYP/6-311++G(d,p) nosym opt freq SCRF=(PCM,Solvent=n,n-DiMethylFormamide)

Oxidized

0 1
C                  5.8593420000     -5.2287770000      1.1623330000
C                  6.7781240000     -5.1311890000      0.1213430000
C                  6.5994650000     -4.1646250000     -0.8785410000
C                  4.7638490000     -4.3703040000      1.2146480000
C                  4.5857450000     -3.4057290000      0.2170800000
C                  5.5044300000     -3.3071180000     -0.8250550000
C                  3.7865730000     -4.4861490000      2.3337490000
C                  2.6225390000     -3.5543250000      2.3571060000
C                  2.4533560000     -2.6141530000      1.3922700000
C                  3.4165780000     -2.4827530000      0.2617880000
O                  3.9432640000     -5.3257290000      3.2112970000
O                  3.2564900000     -1.6393240000     -0.6110120000
H                  5.9893810000     -5.9689690000      1.9405500000
H                  5.3571440000     -2.5601650000     -1.5912620000
Br                 8.2522080000     -6.3400580000      0.1161560000
Br                 7.8131930000     -3.9711080000     -2.3356620000
C                  1.6558600000     -3.7005610000      3.4970980000
C                  1.2876890000     -1.6673850000      1.4070240000
H                  1.9274260000     -4.5475700000      4.1296900000
H                  0.6340200000     -3.8460100000      3.1248340000
H                  1.6469390000     -2.7915450000      4.1141570000
H                  0.3416240000     -2.2149470000      1.3247050000
H                  1.3521670000     -0.9579210000      0.5819990000
H                  1.2540020000     -1.1098160000      2.3519560000





