%chk=346-an-PCM.chk
%nproc=8
%mem=30GB
#P UB3LYP/6-311++G(d,p) SCRF=(PCM,Solvent=n,n-DiMethylFormamide)

Reduced 

-2 1
O                 -0.0512010000     -1.1933200000      1.2841520000
C                 -0.4564080000     -0.3763240000      0.3812300000
C                 -1.9316230000     -0.2347830000      0.2173940000
C                 -2.7489750000     -1.0316910000      1.0635840000
C                 -4.1361220000     -0.9865160000      1.0064890000
C                 -4.7901020000     -0.1517050000      0.0900450000
C                 -4.0032790000      0.6321670000     -0.7641000000
C                 -2.6111630000      0.5954060000     -0.7129310000
C                  0.4564360000      0.3763170000     -0.4818120000
O                  0.0512640000      1.1935110000     -1.3845760000
C                  1.9316260000      0.2348040000     -0.3179100000
C                  2.7490120000      1.0317200000     -1.1640610000
C                  4.1361550000      0.9865040000     -1.1069390000
C                  4.7900890000      0.1516520000     -0.1904980000
C                  4.0032270000     -0.6322180000      0.6636180000
C                  2.6111160000     -0.5954130000      0.6124300000
H                 -2.2353150000     -1.6825550000      1.7616280000
H                 -4.7229730000     -1.6088700000      1.6810270000
H                 -5.8768810000     -0.1077050000      0.0499650000
H                 -4.4877840000      1.2874820000     -1.4864050000
H                 -2.0081830000      1.1948530000     -1.3803050000
H                  2.2353760000      1.6826010000     -1.8621080000
H                  4.7230390000      1.6088580000     -1.7814500000
H                  5.8768640000      0.1076180000     -0.1503960000
H                  4.4877050000     -1.2875530000      1.3859240000
H                  2.0081020000     -1.1948400000      1.2797900000





