%chk=231-an.chk
%nproc=8
%mem=30GB
#P UB3LYP/6-311++G(d,p) nosym opt freq

Reduced

-2 1
C                  5.9017320000     -5.2057090000      1.0748910000
C                  6.7797120000     -5.0790970000      0.0138960000
C                  6.5477310000     -4.0849490000     -0.9702590000
C                  4.7676110000     -4.3722000000      1.2185330000
C                  4.5319630000     -3.3621790000      0.2187330000
C                  5.4467910000     -3.2559170000     -0.8552320000
C                  3.8916030000     -4.5757790000      2.3719340000
C                  2.8013000000     -3.6696470000      2.3796940000
C                  2.5684040000     -2.6713400000      1.3915220000
C                  3.3942630000     -2.4440640000      0.2618300000
O                  4.1169000000     -5.4821810000      3.2535480000
O                  3.1994920000     -1.5495600000     -0.6390000000
H                  6.0458870000     -5.9546220000      1.8478460000
H                  7.6433410000     -5.7380070000     -0.0657060000
H                  5.2358970000     -2.4832600000     -1.5884680000
Cl                 1.6661520000     -3.8375110000      3.7547340000
H                  7.2320630000     -3.9754460000     -1.8105280000
Cl                 1.1433110000     -1.5963330000      1.5363320000


