%chk=097.chk
%nproc=8
%mem=30GB
#P UB3LYP/6-311++G(d,p) nosym opt freq SCRF=(PCM,Solvent=n,n-DiMethylFormamide)

Oxidized

0 1
C                  1.2058380000      4.2606610000      5.3248840000
C                  1.5527180000      4.0160780000      3.9095680000
C                  1.0768540000      2.9524100000      3.2545380000
C                  0.1743450000      1.9718840000      3.9047400000
C                 -0.1289000000      2.1751600000      5.3563560000
C                  0.3510670000      3.2339290000      6.0308710000
O                  1.5798460000      5.2570650000      5.9101280000
O                 -0.3093460000      1.0578500000      3.2653960000
H                  2.1974440000      4.7545550000      3.4467280000
H                  1.3019660000      2.7529750000      2.2128330000
S                 -1.1209720000      0.8717760000      6.1959430000
C                  0.2026370000      3.5118890000      7.5120590000
O                  1.0424190000      3.1763360000      8.3015060000
O                 -0.8800770000      4.2448440000      7.7648380000
C                 -1.0950150000      4.5780250000      9.1557550000
H                 -1.9878210000      5.1981090000      9.1672710000
H                 -0.2374160000      5.1251130000      9.5470380000
H                 -1.2478230000      3.6640250000      9.7297870000
C                 -2.7057030000      0.8763770000      5.3462030000
C                 -2.9582400000     -0.0846820000      4.3707240000
C                 -3.6612970000      1.8200830000      5.7218780000
C                 -4.2062230000     -0.0941400000      3.7532500000
C                 -4.9005260000      1.8044200000      5.0872200000
C                 -5.1711800000      0.8487720000      4.1075310000
O                 -0.4470250000     -0.4020490000      5.9614090000
O                 -1.3505850000      1.3667240000      7.5561100000
H                 -2.1905730000     -0.7999960000      4.1087470000
H                 -3.4408660000      2.5373010000      6.5026320000
H                 -4.4237430000     -0.8381230000      2.9960430000
H                 -5.6566210000      2.5288750000      5.3661600000
H                 -6.1397610000      0.8369830000      3.6206140000


