%chk=127.chk
%nproc=8
%mem=30GB
#P UB3LYP/6-311++G(d,p) nosym opt freq SCRF=(PCM,Solvent=n,n-DiMethylFormamide)

Oxidized

0 1
C                 -2.9687190000     -2.0500540000     -0.0463180000
C                 -2.3340010000     -0.6803030000     -0.0584360000
C                 -3.1967510000      0.4195040000     -0.1290880000
C                 -2.7264730000      1.7202280000     -0.1459910000
C                 -1.3594260000      2.0146630000     -0.0947900000
C                 -0.9707660000      3.4733500000     -0.1219880000
C                 -0.4579440000      0.9250500000     -0.0247780000
C                  1.0123250000      1.1906610000      0.0334940000
O                  1.4634410000      2.3319590000      0.0639500000
C                  1.9528430000      0.0381840000      0.0562870000
C                  3.3313880000      0.2793380000      0.0694640000
C                  4.2275590000     -0.7830080000      0.0941160000
C                  3.7519610000     -2.0983050000      0.1082050000
C                  2.3828190000     -2.3437740000      0.0977910000
C                  1.4770850000     -1.2774080000      0.0707950000
C                  0.0165900000     -1.5623180000      0.0648330000
O                 -0.3660850000     -2.7257950000      0.1134650000
C                 -0.9437970000     -0.4184830000     -0.0082620000
H                 -2.7232960000     -2.6026110000      0.8628310000
H                 -2.6218790000     -2.6657900000     -0.8798030000
H                 -4.0528990000     -1.9454510000     -0.1129630000
H                 -4.2644190000      0.2438300000     -0.1703160000
H                 -3.4349220000      2.5365060000     -0.2024140000
H                 -0.3102590000      3.7024280000     -0.9631100000
H                 -0.4266230000      3.7639640000      0.7794380000
H                 -1.8704020000      4.0853460000     -0.2045980000
H                  3.6838550000      1.3025330000      0.0599830000
H                  5.2939670000     -0.5936110000      0.1014550000
H                  4.4495750000     -2.9288830000      0.1264750000
H                  1.9992560000     -3.3557520000      0.1102720000





