%chk=050-an.chk
%nproc=8
%mem=30GB
#P UB3LYP/6-311++G(d,p) nosym opt freq Int=Acc2E=11  SCRF=(PCM,Solvent=n,n-DiMethylFormamide)

Reduced

-2 1
C                  7.3055240000      1.2538690000      0.0166600000
C                  8.4268000000      1.1279390000      0.8958110000
C                  8.9620440000     -0.1272350000      1.2470170000
C                  8.4340500000     -1.3504270000      0.7271360000
C                  7.3134220000     -1.2282690000     -0.1544120000
C                  6.7777570000      0.0294010000     -0.5044870000
O                  6.7841370000      2.4296870000     -0.3017990000
O                  8.9538850000     -2.5299190000      1.0344630000
C                  5.6058840000      0.1311190000     -1.4732330000
C                  6.7271610000     -2.5037530000     -0.7211660000
C                  9.0433980000      2.3924650000      1.4563300000
C                 10.1400640000     -0.2020600000      2.1959110000
C                  4.2556770000      0.0128500000     -0.8022240000
H                  5.6991000000     -0.6055770000     -2.2757360000
H                  5.6680850000      1.1224300000     -1.9375110000
H                  6.9987740000     -3.3433230000     -0.0769210000
H                  7.1182840000     -2.7412510000     -1.7225160000
H                  5.6385160000     -2.4607910000     -0.8084480000
H                  8.6356510000      3.2613410000      0.9304930000
H                 10.1403130000      2.4011300000      1.3522940000
H                  8.8336290000      2.5257280000      2.5332220000
H                  9.9719650000      0.3694430000      3.1173870000
H                 11.0643910000      0.1981820000      1.7535280000
H                 10.3284930000     -1.2442100000      2.4593170000
C                  3.1754320000     -0.6891570000     -1.1796080000
C                  3.1086150000     -1.5401230000     -2.4265020000
C                  1.9100180000     -0.6590150000     -0.3458110000
C                  0.7101350000      0.0358920000     -1.0178180000
C                 -0.5414950000      0.0403060000     -0.1299250000
C                 -1.8058390000      0.6550670000     -0.7618000000
C                 -3.0341950000      0.3667460000      0.1249450000
C                 -4.3929480000      0.7366740000     -0.4861950000
C                 -5.5728600000      0.3180320000      0.4026510000
C                 -6.9737610000      0.5872990000     -0.1845380000
C                 -8.0496070000     -0.1081610000      0.6760480000
C                 -9.4668350000     -0.1103680000      0.0871000000
C                 -1.6333650000      2.1559970000     -1.0351530000
C                -10.4591110000     -0.9099510000      0.9395910000
C                -11.8833500000     -1.0225410000      0.3626840000
C                -12.5974790000      0.3338980000      0.2801200000
C                -12.7187590000     -2.0176610000      1.1829750000
H                  4.1719540000      0.5879620000      0.1199340000
H                  4.0825350000     -1.6724670000     -2.8975770000
H                  2.4408530000     -1.1007040000     -3.1754510000
H                  2.7044310000     -2.5320570000     -2.1949440000
H                  2.1170490000     -0.1584740000      0.6058950000
H                  1.6176790000     -1.6917580000     -0.0999780000
H                  0.4713020000     -0.4663730000     -1.9637690000
H                  1.0002630000      1.0601830000     -1.2748120000
H                 -0.3184460000      0.5695010000      0.8070380000
H                 -0.7641800000     -0.9960130000      0.1549760000
H                 -1.9692090000      0.1516560000     -1.7266770000
H                 -2.9111370000      0.8922190000      1.0813960000
H                 -3.0408870000     -0.7044090000      0.3652750000
H                 -4.4895490000      0.2499320000     -1.4649050000
H                 -4.4332630000      1.8141070000     -0.6716210000
H                 -5.4918630000      0.8197990000      1.3750750000
H                 -5.4837240000     -0.7566350000      0.6067190000
C                 -7.2476510000      2.0917250000     -0.3387460000
H                 -8.0701070000      0.3636910000      1.6673430000
H                 -7.7391080000     -1.1465970000      0.8408990000
H                 -9.4327130000     -0.5418550000     -0.9233110000
H                 -9.8229140000      0.9176560000     -0.0283030000
H                 -0.7768960000      2.3543970000     -1.6839270000
H                 -1.4732510000      2.7003670000     -0.0959270000
H                 -2.5134560000      2.5839170000     -1.5212130000
H                -10.5204380000     -0.4635310000      1.9430640000
H                -10.0618530000     -1.9214060000      1.0814940000
H                -11.7966870000     -1.4212580000     -0.6564220000
H                -12.0633240000      1.0418360000     -0.3603360000
H                -12.6870240000      0.7845450000      1.2762740000
H                -13.6075510000      0.2210230000     -0.1254790000
H                -12.2474950000     -3.0048720000      1.2124300000
H                -13.7215350000     -2.1351800000      0.7609110000
H                -12.8315980000     -1.6707450000      2.2171340000
H                 -7.0047540000      0.1306780000     -1.1835170000
H                 -7.2284340000      2.5881490000      0.6376120000
H                 -8.2249290000      2.2799540000     -0.7888620000
H                 -6.5007040000      2.5749150000     -0.9735730000





