%chk=052-an.chk
%nproc=8
%mem=30GB
#P HF/6-311++G(d,p) nosym 

Reduced

-2 1
 C                  1.83630600    2.79886800    1.39292700
 C                  0.40130700    2.74004300    1.19294200
 C                 -0.19573200    1.64290500    0.61486800
 C                  0.59154200    0.49772100    0.17560900
 C                  2.04161400    0.56015100    0.34521100
 C                  2.62300900    1.67004700    0.92958000
 O                  2.37706900    3.80585500    1.96563800
 O                  0.04420400   -0.51390400   -0.34557300
 C                 -0.41633300    3.92095300    1.65715000
 C                 -1.68789100    1.57560000    0.41136400
 C                  2.82688100   -0.63275400   -0.13175700
 S                  4.39448800    1.64876400    1.24509200
 C                  4.97020600    3.32507700    0.72746500
 C                  5.30791900    4.27235300    1.89950200
 C                  4.98610900    5.72652300    1.57572000
 O                  5.83149000    6.58462400    1.43091000
 O                  3.68484100    6.00475000    1.45384100
 H                  0.22455800    4.64374900    2.16006300
 H                 -1.20852500    3.61227900    2.34889000
 H                 -0.90980600    4.42278200    0.81558700
 H                 -2.04973200    2.41419400   -0.19558200
 H                 -2.22736400    1.62224600    1.36560400
 H                 -1.94553100    0.64181000   -0.08775500
 H                  2.22343600   -1.20044000   -0.84017300
 H                  3.07591800   -1.30727000    0.69757000
 H                  3.77133800   -0.32739000   -0.58767100
 H                  4.19416900    3.73529100    0.08520700
 H                  5.85461200    3.15971300    0.10852800
 H                  6.36627000    4.21133300    2.15533200
 H                  4.71226200    3.97474900    2.76377400
 H                  3.12701500    5.19056500    1.62796000

--link1--

%chk=052-an.chk
%nproc=8
%mem=30GB
#P UB3LYP/6-311++G(d,p) nosym guess=read geom=check nosym opt freq

Then here read in HF orbitals and run B3LYP

-2 1









