%chk=311.chk
%nproc=8
%mem=30GB
#P UB3LYP/6-311++G(d,p) nosym opt freq

Oxidized

0 1
C                 -4.8781010000     -0.0016450000     -4.1665300000
C                 -4.0120960000     -0.0316220000     -5.2584910000
C                 -2.6267590000     -0.0608390000     -5.0553830000
C                 -4.3501250000      0.0027460000     -2.8754980000
C                 -2.9673870000     -0.0243400000     -2.6601960000
C                 -2.1138460000     -0.0561460000     -3.7663290000
C                 -5.2510440000      0.0375950000     -1.7101020000
C                 -4.6593730000      0.0492820000     -0.3366470000
C                 -3.3224070000      0.0211470000     -0.1033280000
C                 -2.4049180000     -0.0180300000     -1.2764910000
O                 -6.4738400000      0.0625030000     -1.8010150000
O                 -1.1930230000     -0.0460170000     -1.1102580000
O                 -5.5973760000      0.0906240000      0.6265910000
O                 -4.4516250000     -0.0360070000     -6.5469720000
C                 -2.6257750000      0.0323510000      1.2370590000
C                 -3.4596510000      0.0022660000      2.5235320000
C                 -2.5639260000     -0.0023810000      3.7681760000
C                 -3.3512290000     -0.0139630000      5.0831830000
C                 -2.4616670000     -0.0138470000      6.3314700000
C                 -3.2483950000     -0.0155480000      7.6470180000
C                 -2.3591610000     -0.0129170000      8.8955910000
C                 -3.1457800000     -0.0105250000     10.2112400000
C                 -2.2569750000     -0.0095530000     11.4598790000
C                 -3.0426450000     -0.0032400000     12.7761260000
C                 -2.1459960000     -0.0042410000     14.0176580000
H                 -5.9550010000      0.0211040000     -4.2965670000
H                 -1.9737430000     -0.0831550000     -5.9194710000
H                 -1.0447560000     -0.0786240000     -3.5956400000
H                 -6.4548630000      0.0988380000      0.1592020000
H                 -5.4146550000     -0.0150960000     -6.5706370000
H                 -1.9698950000      0.9138420000      1.2476440000
H                 -1.9243790000     -0.8114260000      1.2367170000
H                 -4.1038760000     -0.8820230000      2.5352900000
H                 -4.1293470000      0.8673880000      2.5617950000
H                 -1.9085360000      0.8788220000      3.7476700000
H                 -1.8987360000     -0.8744270000      3.7368280000
H                 -4.0059330000     -0.8953590000      5.1059830000
H                 -4.0182890000      0.8577950000      5.1124260000
H                 -1.8030020000      0.8637510000      6.3063350000
H                 -1.8003440000     -0.8895680000      6.3038630000
H                 -3.9068500000     -0.8933280000      7.6742440000
H                 -3.9099450000      0.8600450000      7.6725140000
H                 -1.6987370000      0.8628830000      8.8663380000
H                 -1.6995780000     -0.8904440000      8.8720810000
H                 -3.8080550000     -0.8845200000     10.2386710000
H                 -3.8034490000      0.8688990000     10.2366190000
H                 -1.5944190000      0.8663250000     11.4315980000
H                 -1.5989740000     -0.8870930000     11.4376190000
H                 -3.7060740000     -0.8766580000     12.8033120000
H                 -3.6996050000      0.8756320000     12.7991240000
H                 -1.5015480000     -0.8894620000     14.0413940000
H                 -2.7364380000      0.0004630000     14.9381760000
H                 -1.4968140000      0.8779640000     14.0353000000





