%chk=227-PCM.chk
%nproc=8
%mem=30GB
#P UB3LYP/6-311++G(d,p) SCRF=(PCM,Solvent=n,n-DiMethylFormamide)

Quinone PCM in DMF 

0 1
C                  5.6806780000     -5.1079330000      1.2814440000
C                  6.6930630000     -5.0186240000      0.3377060000
C                  6.6040080000     -4.0723420000     -0.6980350000
C                  4.5727370000     -4.2602780000      1.2057720000
C                  4.4830850000     -3.3141170000      0.1707470000
C                  5.4978230000     -3.2208840000     -0.7795680000
C                  3.4883910000     -4.3677780000      2.2303630000
C                  2.3372900000     -3.4428890000      2.0998460000
C                  2.2523380000     -2.5404400000      1.1122110000
C                  3.3031710000     -2.3992240000      0.0759710000
O                  3.5390950000     -5.1784260000      3.1387630000
O                  3.1993270000     -1.5701000000     -0.8103390000
C                  7.6506530000     -3.9821630000     -1.6712860000
N                  8.4979240000     -3.9141600000     -2.4533140000
H                  5.7305950000     -5.8301570000      2.0868470000
H                  7.5544300000     -5.6727700000      0.3908360000
H                  5.4151160000     -2.4870960000     -1.5713740000
H                  1.5680830000     -3.5455090000      2.8575370000
H                  1.4099240000     -1.8640040000      1.0171600000





