%chk=281.chk
%nproc=8
%mem=30GB
#P UB3LYP/6-311++G(d,p) nosym opt freq

Oxidized

0 1
C                  3.3126620000     -0.2752580000     -0.1023110000
C                  1.8215200000     -0.4306050000     -0.1508910000
C                  0.9620540000      0.7348350000      0.1453250000
O                  1.4454980000      1.8209960000      0.4285740000
C                 -0.5309740000      0.5670740000      0.0914350000
C                 -1.3542640000      1.6565470000      0.3702810000
C                 -2.7399880000      1.5140630000      0.3256920000
C                 -3.3136480000      0.2831800000      0.0046830000
C                 -2.5004440000     -0.8107430000     -0.2732050000
C                 -1.1114690000     -0.6702100000     -0.2313020000
C                 -0.2367520000     -1.8198720000     -0.5234370000
O                 -0.6448010000     -2.9381130000     -0.8162910000
C                  1.2371250000     -1.6130130000     -0.4637420000
O                  1.9597130000     -2.7090500000     -0.7447450000
H                  3.7636480000     -1.0512110000      0.5345690000
H                  3.5742790000      0.7162780000      0.2795490000
H                  3.7465460000     -0.3938260000     -1.1080410000
H                 -0.8929870000      2.6041640000      0.6170010000
H                 -3.3748670000      2.3653660000      0.5435990000
H                 -4.3918750000      0.1783350000     -0.0284530000
H                 -2.9215990000     -1.7759490000     -0.5265520000
H                  1.3159840000     -3.4186590000     -0.9283590000





