%chk=054-rad-PCM.chk
%nproc=8
%mem=30GB
#P UB3LYP/6-311++G(d,p) SCRF=(PCM,Solvent=n,n-DiMethylFormamide)

Radical PCM in DMF 

-1 2
C                 -0.5680230000      2.0890170000     -0.0875010000
C                 -1.8041910000      1.3012570000     -0.0651660000
C                 -1.7498390000     -0.0784790000      0.0001810000
C                 -0.4650970000     -0.7708900000      0.0472800000
C                  0.7665360000      0.0131650000      0.0233930000
C                  0.7215360000      1.3933010000     -0.0408780000
O                 -0.6136530000      3.3567890000     -0.1471290000
O                 -0.4194350000     -2.0396400000      0.1078100000
C                  1.9319270000      2.3319590000     -0.0715790000
C                  2.7760300000      2.3283650000      1.2190170000
C                  2.7989090000      2.2130590000     -1.3413520000
C                  2.0814770000     -0.7663140000      0.0723850000
C                  2.2558610000     -1.5601870000      1.3839140000
C                  2.2804460000     -1.6781990000     -1.1563530000
C                 -3.0789510000      2.1492830000     -0.1204050000
C                 -3.9427270000      2.0865740000      1.1555710000
C                 -3.9127840000      1.9653000000     -1.4045080000
C                 -3.0053710000     -0.9513950000      0.0261790000
C                 -3.1151860000     -1.8745910000     -1.2052900000
C                 -3.1455970000     -1.7567890000      1.3348440000
H                  1.4755590000      3.3225980000     -0.1202980000
H                  3.5121650000      3.1417290000      1.1898750000
H                  3.3229700000      1.3955970000      1.3803580000
H                  2.1351780000      2.4907740000      2.0903500000
H                  3.3443830000      1.2680960000     -1.4102660000
H                  3.5379490000      3.0237990000     -1.3704740000
H                  2.1742370000      2.3001310000     -2.2349320000
H                  2.8917930000     -0.0401530000      0.0462450000
H                  2.1757660000     -0.8977220000      2.2517210000
H                  3.2453300000     -2.0345940000      1.4122290000
H                  1.4905010000     -2.3318190000      1.4669100000
H                  1.5163040000     -2.4550380000     -1.1824200000
H                  3.2699150000     -2.1521610000     -1.1213690000
H                  2.2178070000     -1.0990990000     -2.0832400000
H                 -2.6949900000      3.1703870000     -0.1642700000
H                 -4.7373520000      2.8421070000      1.1102750000
H                 -3.3309500000      2.2996320000      2.0368320000
H                 -4.4204810000      1.1156980000      1.3118280000
H                 -4.7062210000      2.7220710000     -1.4501880000
H                 -4.3895270000      0.9842560000     -1.4785260000
H                 -3.2801700000      2.0929420000     -2.2875630000
H                 -3.8656440000     -0.2859340000     -0.0148210000
H                 -4.0685100000     -2.4184660000     -1.1887020000
H                 -2.2967480000     -2.5943980000     -1.2159540000
H                 -3.0765450000     -1.2920250000     -2.1313060000
H                 -4.0986360000     -2.3013320000      1.3454170000
H                 -3.1293430000     -1.0910350000      2.2036880000
H                 -2.3282720000     -2.4713370000      1.4321870000





