%chk=049-PCM.chk
%nproc=8
%mem=30GB
#P UB3LYP/6-311++G(d,p) SCRF=(PCM,Solvent=n,n-DiMethylFormamide)

Quinone PCM in DMF 

0 1
C                  3.0300810000     -1.1152990000     -0.1381190000
C                  1.7403840000     -0.3660440000     -0.0005070000
C                  1.6543660000      0.9222000000      0.3641780000
C                  0.3634010000      1.6281120000      0.4893180000
O                  0.3380090000      2.8038300000      0.8253130000
C                 -0.8968120000      0.8771360000      0.1981010000
C                 -0.8379060000     -0.4231020000     -0.1724290000
C                 -2.0668790000     -1.2331390000     -0.4789440000
C                  0.4793940000     -1.1206110000     -0.2930380000
O                  0.5409780000     -2.2944030000     -0.6261080000
C                 -2.1909340000      1.6273640000      0.3361130000
H                  3.1435890000     -1.5033730000     -1.1540360000
H                  3.8806640000     -0.4743660000      0.0968960000
H                  3.0428140000     -1.9850790000      0.5243700000
H                  2.5322050000      1.5194890000      0.5883510000
H                 -2.7291230000     -1.2826940000      0.3914310000
H                 -1.7956080000     -2.2469310000     -0.7675920000
H                 -2.6421990000     -0.7784760000     -1.2915990000
H                 -2.8451210000      1.1481040000      1.0714560000
H                 -2.0045200000      2.6530940000      0.6496100000
H                 -2.7367830000      1.6441890000     -0.6127660000





