%chk=271-rad.chk
%nproc=8
%mem=30GB
#P UB3LYP/6-311++G(d,p) nosym opt freq

Radical

-1 2
  C   -1.0035282    3.9554781    0.1362459
  C   -2.2212102    3.2807161    0.2495118
  C   -2.2629131    1.8903699    0.1397407
  C    0.1873905    3.2395834   -0.0876880
  C    0.1455137    1.8401035   -0.1986495
  C   -1.0870176    1.1702942   -0.0833540
  C    1.4865985    3.9381629   -0.2174703
  C    2.7468105    3.1717629   -0.4569076
  C    2.7145111    1.8024681   -0.5285298
  C    1.4032132    1.0923759   -0.4307618
  O    1.5257017    5.1581296   -0.1445121
  O    1.3723800   -0.1269228   -0.5192582
  N    3.9408099    3.9219108   -0.6819244
  H   -0.9936045    5.0347614    0.2230809
  H   -3.1337011    3.8367602    0.4220053
  H   -3.2076633    1.3695284    0.2277467
  H   -1.1416687    0.0919262   -0.1646823
  H    3.9353474    4.9494222   -0.6118607
  H    4.7950266    3.4964457   -1.0624435
  N    3.8794874    0.9786450   -0.7167268
  C    5.0828024    1.1474979   -0.0933451
  C    6.1978235    0.1790518   -0.3561777
  H    3.7625985    0.1130827   -1.2657841
  H    5.8727406   -0.8476609   -0.0865784
  H    7.0958311    0.4387919    0.2444713
  H    6.4676851    0.2066751   -1.4325782
  O    5.2565137    2.0398814    0.7239595






