%chk=305-an-PCM.chk
%nproc=8
%mem=30GB
#P UB3LYP/6-311++G(d,p) SCRF=(PCM,Solvent=n,n-DiMethylFormamide)

Reduced 

-2 1
C                  4.2105050000     -1.3077330000      3.8868240000
C                  3.4382090000     -0.9692230000      4.9751020000
C                  2.5050380000      0.0928910000      4.9008010000
C                  4.0859060000     -0.5938260000      2.6597820000
C                  3.1394340000      0.4865000000      2.5710250000
C                  2.3758030000      0.7908720000      3.7113130000
C                  4.8926370000     -0.9471150000      1.5357230000
C                  4.6886350000     -0.1697020000      0.3536380000
C                  3.7887190000      0.8847120000      0.2227180000
C                  2.9577650000      1.2623910000      1.3369680000
O                  5.7820780000     -1.8979630000      1.4990290000
O                  2.1170800000      2.2186320000      1.2659960000
O                  5.4992230000     -0.5609240000     -0.6872610000
O                  3.4975570000     -1.6163530000      6.2128950000
C                  4.4078630000     -2.6837820000      6.3331520000
C                  3.6710360000      1.6578290000     -1.0657420000
C                  2.5621200000      1.1484660000     -2.0132870000
C                  2.4454830000      1.9901040000     -3.2917690000
C                  1.3078880000      1.6087110000     -4.2580550000
C                  1.4961530000      0.2157040000     -4.8887440000
C                  1.1386960000      2.6654960000     -5.3679340000
C                  0.0195070000      2.3179100000     -6.3592560000
C                  0.2186240000      0.9261160000     -6.9700070000
C                  0.3768630000     -0.1402550000     -5.8795840000
H                  4.9347460000     -2.1123130000      3.9037590000
H                  1.9103710000      0.3354330000      5.7756750000
H                  1.6676280000      1.6086340000      3.6221240000
H                  5.9903010000     -1.2996670000     -0.2499620000
H                  4.3103300000     -3.0587580000      7.3554630000
H                  5.4434720000     -2.3598220000      6.1626800000
H                  4.1839950000     -3.4940970000      5.6263230000
H                  4.6278180000      1.6305350000     -1.6008040000
H                  3.4450540000      2.7006330000     -0.8136970000
H                  1.6113260000      1.1716780000     -1.4691910000
H                  2.7687180000      0.1019030000     -2.2603020000
H                  3.3990000000      1.9539430000     -3.8400320000
H                  2.3072500000      3.0400030000     -2.9991060000
H                  0.3723350000      1.5865500000     -3.6782040000
H                  1.5574540000     -0.5447820000     -4.1046430000
H                  2.4624680000      0.1968100000     -5.4133240000
H                  2.0885630000      2.7602290000     -5.9139220000
H                  0.9468730000      3.6456560000     -4.9133760000
H                 -0.0463260000      3.0751680000     -7.1519970000
H                 -0.9452890000      2.3415690000     -5.8337080000
H                  1.1228020000      0.9365560000     -7.5951210000
H                 -0.6117700000      0.6772960000     -7.6432900000
H                  0.5713240000     -1.1198220000     -6.3351670000
H                 -0.5708960000     -0.2386610000     -5.3328550000





