%chk=074-rad.chk
%nproc=8
%mem=30GB
#P UB3LYP/6-311++G(d,p) nosym  opt freq SCRF=(PCM,Solvent=n,n-DiMethylFormamide)

Radical

-1 2
C                  0.6058130000      1.2909440000     -0.8955340000
C                 -0.7365140000      0.8229670000     -0.5801620000
C                 -1.0284990000     -0.4817050000     -0.2406630000
C                  0.0749420000     -1.4392410000     -0.1010240000
C                  1.4513790000     -0.9957280000     -0.3503790000
C                  1.6731610000      0.3231710000     -0.6865150000
O                  0.8278760000      2.4466460000     -1.3137430000
O                 -0.1569850000     -2.6310820000      0.2328590000
S                  3.3423710000      0.9523880000     -1.0311500000
C                  3.4983670000      2.5427040000     -0.1658750000
C                  3.4294090000      3.7292340000     -0.8873510000
C                  3.7856030000      2.5347200000      1.1955820000
C                  3.9941320000      3.7470170000      1.8520630000
C                  3.6579340000      4.9337060000     -0.2272960000
C                  3.9346930000      4.9443170000      1.1404090000
O                  3.5062930000      1.2105780000     -2.4693000000
O                  4.3190890000      0.0713910000     -0.3606940000
H                  3.1888990000      3.6914880000     -1.9408500000
H                  3.8596140000      1.5934410000      1.7257860000
H                  3.6085780000      5.8660210000     -0.7792760000
H                  4.2126810000      3.7533820000      2.9143990000
H                  4.1019200000      5.8864910000      1.6518670000
S                 -2.0381240000      2.0737870000     -0.7877320000
C                 -1.4847410000      3.5569240000      0.1049000000
C                 -0.9653520000      4.6360230000     -0.6016640000
C                 -1.6824750000      3.6159090000      1.4812520000
C                 -1.3389390000      4.7801760000      2.1670440000
C                 -0.6414450000      5.8008220000      0.0893530000
C                 -0.8231280000      5.8725070000      1.4709550000
O                 -2.1849250000      2.4338640000     -2.2053170000
O                 -3.2361540000      1.6262370000     -0.0502500000
H                 -0.8133490000      4.5431330000     -1.6679700000
H                 -2.1137520000      2.7690180000      2.0001980000
H                 -1.4841990000      4.8355890000      3.2404630000
H                 -0.2360930000      6.6496870000     -0.4503750000
H                 -0.5601160000      6.7793800000      2.0054440000
C                 -2.4059980000     -1.0479450000     -0.0080680000
C                  2.5064590000     -2.0649280000     -0.2260410000
H                 -2.8425410000     -0.6577820000      0.9145480000
H                 -2.3204560000     -2.1303630000      0.0681720000
H                 -3.0954060000     -0.7779440000     -0.8082790000
H                  2.0066250000     -3.0271670000     -0.1308990000
H                  3.1335330000     -1.8993180000      0.6534200000
H                  3.1801640000     -2.0712080000     -1.0831890000


