%chk=093-PCM.chk
%nproc=8
%mem=30GB
#P UB3LYP/6-311++G(d,p) SCRF=(PCM,Solvent=n,n-DiMethylFormamide)

Quinone PCM in DMF 

0 1
C                 17.2276580000      1.4626860000      0.1105210000
C                 16.5444550000      0.2724940000      0.7159110000
C                 16.0720350000      0.3317980000      1.9776640000
C                 16.1515450000      1.6036200000      2.7531060000
C                 16.7931470000      2.8139320000      2.1253200000
C                 17.2880360000      2.7402330000      0.8605810000
O                 17.7524020000      1.3752830000     -0.9918370000
O                 15.6911480000      1.6796160000      3.8765710000
C                 17.5146620000      4.3166420000     -0.9355160000
C                 17.1186290000      5.1846570000      2.5642500000
C                 16.4697340000     -0.9593310000     -0.1433740000
H                 18.1751230000      5.1530700000     -1.1604660000
H                 16.4873890000      4.6819420000     -0.8248180000
H                 17.5693210000      3.5740980000     -1.7297480000
H                 16.9160770000      5.7936650000      3.4437400000
H                 16.4733390000      5.5004890000      1.7412640000
H                 18.1626590000      5.2732750000      2.2697050000
C                 15.4063250000     -0.8308170000      2.6833400000
C                 13.9071150000     -0.8314280000      2.4796210000
C                 13.1261150000     -1.8337540000      2.0538260000
C                 11.6298190000     -1.6231270000      1.9320890000
C                 11.1170050000     -1.5628470000      0.4708600000
C                  9.6211090000     -1.4266290000      0.3987890000
C                  8.8914740000     -0.4075360000     -0.0770870000
C                  7.3778960000     -0.4736400000     -0.0380060000
C                  6.7230660000      0.5205740000      0.9533090000
C                  5.2212330000      0.4549990000      0.9159350000
C                  4.3700220000      0.1130170000      1.8935980000
C                  2.8765580000      0.1177600000      1.6372560000
C                 13.6160590000     -3.2160170000      1.6983150000
C                  9.4702750000      0.8470630000     -0.6846730000
C                  4.7885970000     -0.2933320000      3.2859470000
C                  2.1052860000      1.2243390000      2.4002610000
C                  0.6228650000      1.1555370000      2.1576840000
C                 -0.1703640000      2.0411700000      1.5381210000
C                 -1.6521700000      1.7599900000      1.3885920000
C                 -2.0982100000      1.4593160000     -0.0648660000
C                 -3.5835470000      1.2509690000     -0.1727230000
C                 -4.2553200000      0.1404450000     -0.5087270000
C                 -5.7706440000      0.1483760000     -0.5375910000
C                 -6.4317860000     -0.6848900000      0.5895920000
C                 -7.9317240000     -0.6968510000      0.4831930000
C                 -8.8390470000     -0.1800210000      1.3241120000
C                -10.3173730000     -0.2909320000      1.0088000000
C                -10.9890040000      1.0541160000      0.6322010000
C                -12.4653360000      0.9045480000      0.3884700000
C                -13.1504340000      1.0684100000     -0.7522310000
C                  0.3012840000      3.3543730000      0.9625780000
C                 -3.6067050000     -1.1687490000     -0.8875420000
C                 -8.5029930000      0.5226600000      2.6169590000
C                -12.5347260000      1.4830740000     -2.0664450000
C                -14.6494310000      0.8458110000     -0.7776180000
C                -15.0896910000     -0.4203560000     -1.5546530000
C                -16.5855020000     -0.5641330000     -1.6109770000
C                -17.3571170000     -1.5274140000     -1.0874470000
C                -16.8340090000     -2.7048980000     -0.3005560000
C                -18.8609830000     -1.4786470000     -1.2661930000
C                -19.4301760000     -2.6031720000     -2.1667330000
C                -20.9284610000     -2.5408330000     -2.2778900000
C                -21.6828040000     -2.3446500000     -3.3685210000
C                -21.1332600000     -2.1373940000     -4.7594170000
C                -23.1936630000     -2.3213760000     -3.2568050000
H                 15.6108690000     -0.7326980000      3.7538320000
H                 15.8547850000     -1.7652300000      2.3469910000
H                 13.4249540000      0.1076830000      2.7421600000
H                 11.3469210000     -0.6956330000      2.4374610000
H                 11.1057910000     -2.4357260000      2.4525800000
H                 11.4095130000     -2.4826930000     -0.0502360000
H                 11.6220550000     -0.7422730000     -0.0433450000
H                  9.0741320000     -2.2785350000      0.8035230000
H                  7.0617710000     -1.4866260000      0.2269840000
H                  6.9802110000     -0.2747680000     -1.0425250000
H                  7.0335620000      1.5406010000      0.6954490000
H                  7.1108920000      0.3266480000      1.9558630000
H                  4.7859060000      0.7134000000     -0.0498400000
H                  2.4566140000     -0.8567710000      1.9213080000
H                  2.6881420000      0.2388700000      0.5666320000
H                 14.6973070000     -3.3251050000      1.7795450000
H                 13.3290310000     -3.4910490000      0.6780560000
H                 13.1577230000     -3.9593240000      2.3611080000
H                 10.5584490000      0.8333190000     -0.7374580000
H                  9.1787030000      1.7349760000     -0.1137440000
H                  9.0860560000      0.9896580000     -1.7015760000
H                  5.8678080000     -0.3995280000      3.3919570000
H                  4.3283040000     -1.2504310000      3.5570960000
H                  4.4542900000      0.4362290000      4.0316430000
H                  2.5160970000      2.1961850000      2.1175320000
H                  2.2886930000      1.1112100000      3.4756200000
H                  0.1491700000      0.2486710000      2.5347350000
H                 -2.2243780000      2.6225520000      1.7562380000
H                 -1.9300780000      0.9102390000      2.0186900000
H                 -1.5413510000      0.5933880000     -0.4296320000
H                 -1.8163740000      2.3022920000     -0.7074080000
H                 -4.1780030000      2.1319820000      0.0710190000
H                 -6.1175930000     -0.2389960000     -1.5051590000
H                 -6.1337980000      1.1775900000     -0.4655780000
H                 -6.0984120000     -0.2954140000      1.5540390000
H                 -6.0691630000     -1.7182750000      0.5304750000
H                 -8.3130890000     -1.1864620000     -0.4133650000
H                -10.8435420000     -0.7111380000      1.8766470000
H                -10.4651370000     -0.9941690000      0.1841860000
H                -10.4761090000      1.4695750000     -0.2380590000
H                -10.8408850000      1.7696540000      1.4500440000
H                -13.0371450000      0.6103960000      1.2690710000
H                  1.3652460000      3.5307420000      1.1172820000
H                 -0.2474720000      4.1880430000      1.4165440000
H                  0.1112570000      3.4062810000     -0.1147380000
H                 -2.5181870000     -1.1224890000     -0.8845490000
H                 -3.9276020000     -1.4767200000     -1.8897440000
H                 -3.9049030000     -1.9713350000     -0.2046420000
H                 -7.4332820000      0.5513490000      2.8217120000
H                 -8.9937490000      0.0230150000      3.4605830000
H                 -8.8661010000      1.5558720000      2.6127960000
H                -11.4610990000      1.6559270000     -1.9993550000
H                -13.0019690000      2.4053590000     -2.4315900000
H                -12.6991900000      0.7238260000     -2.8384080000
H                -15.1390190000      1.7189030000     -1.2299060000
H                -15.0273710000      0.7727120000      0.2461950000
H                -14.6167390000     -1.2942850000     -1.1011630000
H                -14.7071310000     -0.3619880000     -2.5810240000
H                -17.0932820000      0.2407110000     -2.1432000000
H                -15.7685310000     -2.6320180000     -0.0844400000
H                -16.9987130000     -3.6470520000     -0.8347860000
H                -17.3654880000     -2.7901150000      0.6542740000
H                -19.1486570000     -0.5130520000     -1.6919660000
H                -19.3454480000     -1.5440370000     -0.2822990000
H                -19.1525790000     -3.5759960000     -1.7425140000
H                -18.9502660000     -2.5482270000     -3.1465430000
H                -21.4530650000     -2.6636180000     -1.3298760000
H                -20.0498900000     -2.0220240000     -4.7761240000
H                -21.5738830000     -1.2420730000     -5.2128010000
H                -21.3856510000     -2.9772820000     -5.4162190000
H                -23.4788340000     -2.3117130000     -2.2000840000
C                -23.9013710000     -3.5113520000     -3.9523710000
H                -23.5798810000     -1.3911710000     -3.6935820000
C                -25.3870210000     -3.5035820000     -3.7199930000
C                -26.3754320000     -3.3712520000     -4.6147510000
C                -27.8205390000     -3.3806930000     -4.1779440000
C                -26.1784180000     -3.2083030000     -6.1011340000
H                -23.4795710000     -4.4398450000     -3.5461920000
H                -23.6704430000     -3.5087070000     -5.0193470000
H                -25.6779430000     -3.6095580000     -2.6747590000
H                -27.9172040000     -3.5017230000     -3.0971500000
H                -28.3721540000     -4.1948520000     -4.6632980000
H                -28.3235110000     -2.4491190000     -4.4639190000
H                -25.1304740000     -3.1847780000     -6.3986820000
H                -26.6487980000     -2.2815600000     -6.4502550000
H                -26.6646120000     -4.0269520000     -6.6450010000
O                 17.9866400000      3.7763830000      0.3116040000
O                 16.8016820000      3.8460360000      2.9732950000
H                 17.1985820000     -1.7079350000      0.1869990000
H                 16.7012520000     -0.7140660000     -1.1784500000
H                 15.4792950000     -1.4144670000     -0.0890400000














