%chk=103-PCM.chk
%nproc=8
%mem=30GB
#P UB3LYP/6-311++G(d,p) SCRF=(PCM,Solvent=n,n-DiMethylFormamide)

Quinone PCM in DMF 

0 1
C                 -0.2162390000      1.7106610000      4.8902230000
C                  1.0275190000      1.1263400000      4.3397260000
C                  1.4329540000      1.2395880000      3.0610440000
C                  0.5227040000      1.9940070000      2.1241300000
C                 -0.7513320000      2.5231450000      2.6480140000
C                 -1.1402710000      2.4103460000      3.9357070000
O                 -0.4501790000      1.6239450000      6.0840270000
O                  0.7942040000      2.1621370000      0.9433090000
S                 -2.5956470000      3.2501240000      4.4818130000
C                 -3.4352220000      2.1119570000      5.7021970000
C                 -4.6396760000      2.8945220000      6.2284840000
C                 -3.8345150000      0.7874880000      5.0578690000
C                  2.7432870000      0.6488920000      2.5347360000
C                  3.5176440000     -0.0829990000      3.6464500000
C                  3.6437840000      1.7857770000      1.9886750000
C                  2.4403600000     -0.3704670000      1.4075020000
H                  1.6114920000      0.6032570000      5.0860700000
H                 -1.3688800000      3.0223880000      1.9098750000
H                 -2.7192530000      1.9453560000      6.5033460000
H                 -4.3363210000      3.8267110000      6.7100360000
H                 -5.1671010000      2.2879260000      6.9701600000
H                 -5.3456210000      3.1324590000      5.4272330000
H                 -2.9674390000      0.2383200000      4.6851630000
H                 -4.5246360000      0.9447050000      4.2244720000
H                 -4.3321320000      0.1549550000      5.8007780000
H                  2.9491880000     -0.9206090000      4.0603100000
H                  3.7920370000      0.5872160000      4.4658360000
H                  4.4429580000     -0.4882940000      3.2299980000
H                  3.8674640000      2.5158280000      2.7722010000
H                  3.1753870000      2.3025200000      1.1526490000
H                  4.5923950000      1.3625000000      1.6458580000
H                  1.8041320000     -1.1809370000      1.7755410000
H                  3.3777720000     -0.8139820000      1.0595730000
H                  1.9483240000      0.1028840000      0.5594330000





