%chk=314-rad.chk
%nproc=8
%mem=30GB
#P UB3LYP/6-311++G(d,p) nosym  opt freq

Radical

-1 2
C                 -4.2515840000     -0.5518770000     -3.5877710000
C                 -3.2729630000     -0.9088900000     -4.4982540000
C                 -1.9155310000     -0.7011700000     -4.1901070000
C                 -3.9102470000      0.0201000000     -2.3461880000
C                 -2.5461450000      0.2285510000     -2.0378830000
C                 -1.5628870000     -0.1402720000     -2.9750320000
C                 -4.9742650000      0.3864820000     -1.3967980000
C                 -4.5618120000      0.9588070000     -0.1294340000
C                 -3.2097510000      1.1723250000      0.1535130000
C                 -2.1302740000      0.8335290000     -0.7552460000
O                 -6.1874830000      0.1984810000     -1.6834740000
O                 -0.9224050000      1.0163270000     -0.4893670000
H                 -5.3043550000     -0.6996890000     -3.7982880000
H                 -3.5513030000     -1.3489370000     -5.4513460000
H                 -1.1472100000     -0.9811100000     -4.9045820000
H                 -0.5267830000      0.0327060000     -2.7081930000
C                 -5.6650660000      1.3132990000      0.8334130000
S                 -2.7484550000      2.0429440000      1.6520330000
C                 -1.8778140000      0.8556280000      2.6519750000
C                 -1.2380700000      1.3090160000      3.7912050000
C                 -0.5707900000      0.4188100000      4.6657480000
C                 -0.5505840000     -0.9798950000      4.3587180000
C                 -1.2078670000     -1.4148620000      3.1775350000
C                 -1.8518620000     -0.5320630000      2.3492550000
C                  0.0891230000      0.8616940000      5.8453020000
C                  0.7315040000     -0.0264190000      6.6762660000
C                  0.7494230000     -1.4083620000      6.3707160000
C                  0.1209620000     -1.8683560000      5.2353080000
H                 -5.8847580000      2.3883070000      0.8112520000
H                 -5.3943930000      1.0665250000      1.8620500000
H                 -6.5745880000      0.7876660000      0.5419310000
H                 -1.2382980000      2.3691600000      4.0262130000
H                 -1.1935120000     -2.4720130000      2.9294360000
H                 -2.3433550000     -0.8808630000      1.4501140000
H                  0.0782420000      1.9215830000      6.0805570000
H                  1.2297490000      0.3316260000      7.5713950000
H                  1.2597840000     -2.1005240000      7.0319540000
H                  0.1326330000     -2.9271020000      4.9937030000


