%chk=329-PCM.chk
%nproc=8
%mem=30GB
#P UB3LYP/6-311++G(d,p) SCRF=(PCM,Solvent=n,n-DiMethylFormamide)

Quinone PCM in DMF 

0 1
C                 -0.6428320000      2.6817750000     -0.9633760000
C                 -1.7182140000      2.0635210000     -0.3700780000
C                 -1.5904180000      0.7568140000      0.1558030000
C                  0.6085660000      2.0196980000     -1.0567760000
C                  0.7382780000      0.6958960000     -0.5240370000
C                 -0.3903410000      0.0879930000      0.0809030000
C                  1.7361680000      2.6250320000     -1.6602980000
C                  2.9412990000      1.9588170000     -1.7378150000
C                  3.0732990000      0.6391470000     -1.2075990000
C                  1.9897780000      0.0345870000     -0.6177660000
C                  4.1001790000      2.6088460000     -2.3699520000
C                  5.3848510000      1.8410090000     -2.4277680000
C                  5.5066930000      0.5938990000     -1.9259440000
C                  4.3809230000     -0.0921870000     -1.2881370000
O                  4.0930220000      3.7346990000     -2.8543740000
O                  4.5025660000     -1.2228880000     -0.8365890000
O                  6.3906560000      2.4962660000     -3.0156740000
H                 -0.7373930000      3.6837560000     -1.3676360000
H                 -2.6706900000      2.5764120000     -0.3028180000
H                 -2.4470020000      0.2822100000      0.6206230000
H                 -0.2924800000     -0.9139300000      0.4841540000
H                  1.6607450000      3.6260930000     -2.0699840000
H                  2.1070620000     -0.9673690000     -0.2203560000
H                  6.4463330000      0.0574520000     -1.9790970000
H                  6.0312530000      3.3647230000     -3.2816700000





