%chk=205.chk
%nproc=8
%mem=30GB
#P UB3LYP/6-311++G(d,p) nosym opt freq SCRF=(PCM,Solvent=n,n-DiMethylFormamide)

Oxidized

0 1
O                 -2.7338800000     -2.5401090000      0.5391060000
C                 -2.5589750000     -1.2207930000      0.3975860000
C                 -3.7169080000     -0.4109910000      0.4075950000
C                 -3.6263620000      0.9509920000      0.2683990000
C                 -2.3725490000      1.5833040000      0.1110210000
O                 -2.3711230000      2.9154060000     -0.0184430000
C                 -1.2035190000      0.8015970000      0.0974120000
C                  0.0955900000      1.4387250000     -0.0639690000
O                  0.1790860000      2.6935750000     -0.1921840000
C                  1.2977990000      0.6177080000     -0.0763050000
C                  2.5588150000      1.2208070000     -0.2314100000
O                  2.7334800000      2.5401910000     -0.3729260000
C                  3.7168530000      0.4111410000     -0.2414160000
C                  3.6264430000     -0.9508730000     -0.1022280000
C                  2.3726810000     -1.5833520000      0.0551380000
O                  2.3714040000     -2.9154400000      0.1845800000
C                  1.2035310000     -0.8017320000      0.0687460000
C                 -0.0955730000     -1.4388850000      0.2301160000
O                 -0.1788720000     -2.6937810000      0.3583810000
C                 -1.2978480000     -0.6178530000      0.2424690000
H                 -1.8399040000     -2.9577780000      0.5112750000
H                 -4.6760690000     -0.8997610000      0.5284610000
H                 -4.5114910000      1.5754840000      0.2754980000
H                 -1.4306180000      3.1979450000     -0.1179110000
H                  1.8395040000      2.9578580000     -0.3451270000
H                  4.6759470000      0.9000300000     -0.3622740000
H                  4.5116430000     -1.5752620000     -0.1093280000
H                  1.4309150000     -3.1981510000      0.2840270000


