%chk=083-an.chk
%nproc=8
%mem=30GB
#P UB3LYP/6-311++G(d,p) nosym opt freq

Reduced

-2 1
C          1.49992        1.31119       -0.63553
C          0.24768        1.86029       -0.10028
C         -0.73105        1.06225        0.31458
C         -0.60044       -0.39926        0.25477
C          0.66578       -0.99395       -0.28656
C          1.66813       -0.18610       -0.71146
O          2.37325        2.09085       -1.00553
O         -1.53614       -1.08549        0.65162
C          0.66137       -2.49840       -0.28895
O          2.89326       -0.53378       -1.23459
C          3.32881       -1.86402       -1.42400
H          0.16817        2.94004       -0.06334
H         -1.66101        1.45137        0.71202
H         -0.26339       -2.93187        0.10395
H          1.46134       -2.89164        0.34425
H          0.75783       -2.88696       -1.30641
H          4.33527       -1.82553       -1.85283
H          2.69509       -2.39047       -2.14126
H          3.40624       -2.39521       -0.47264









