%chk=240-rad.chk
%nproc=8
%mem=30GB
#P UB3LYP/6-311++G(d,p) nosym  opt freq SCRF=(PCM,Solvent=n,n-DiMethylFormamide)

Radical

-1 2
O                  2.7719960000     -2.7466590000     -1.3782930000
C                  2.2217780000     -1.7560060000     -0.8257030000
C                  0.7962250000     -1.5996630000     -0.7546590000
C                  0.1426630000     -0.5340420000     -0.1607630000
C                 -1.3765510000     -0.4993310000     -0.1608270000
C                 -1.9490730000      0.7024460000     -0.9472320000
C                 -3.4847350000      0.6947880000     -0.9689480000
C                 -4.0705990000      0.6454570000      0.4494910000
C                 -3.5140730000     -0.5501890000      1.2358760000
C                 -1.9784700000     -0.5451410000      1.2625620000
C                  0.8907910000      0.5426330000      0.4568270000
O                  0.3373240000      1.5353670000      1.0112420000
C                  2.3606170000      0.4286940000      0.4106300000
C                  3.1505630000      1.4411150000      0.9924310000
C                  4.5321260000      1.3713210000      0.9696400000
C                  5.1718120000      0.2753110000      0.3578410000
C                  4.4143670000     -0.7288480000     -0.2187700000
C                  3.0073920000     -0.6748960000     -0.2052050000
H                  0.2161030000     -2.3977290000     -1.2127240000
H                 -1.7105240000     -1.4103020000     -0.6795890000
H                 -1.5837360000      1.6218400000     -0.4812930000
H                 -1.5584770000      0.6816090000     -1.9707330000
H                 -3.8582890000      1.5783280000     -1.5012800000
H                 -3.8402930000     -0.1804890000     -1.5319400000
H                 -3.8102430000      1.5725630000      0.9764750000
H                 -5.1664010000      0.6008050000      0.4097050000
H                 -3.8707140000     -1.4802750000      0.7697660000
H                 -3.9086480000     -0.5454960000      2.2595240000
H                 -1.6085020000     -1.4365970000      1.7811920000
H                 -1.6143430000      0.3246180000      1.8164280000
H                  2.6327190000      2.2728990000      1.4562880000
H                  5.1246060000      2.1609550000      1.4230870000
H                  6.2565420000      0.2202760000      0.3397160000
H                  4.8760470000     -1.5853620000     -0.6973530000


