%chk=164-new-pro.chk
%nproc=8
%mem=30GB
#P UB3LYP/6-311++G(d,p) nosym opt freq SCF=YQC

Oxidized

-2 1
 N                  3.37022300   -1.44975300   -2.48522300
 C                  2.50499500   -0.30596100   -2.36647400
 C                  1.88084800   -0.05840800   -1.14654300
 C                  2.38881500    0.57901500   -3.43330200
 C                  1.14260500    1.12122600   -0.95541000
 C                  1.64538200    1.74188000   -3.24984800
 C                  1.04080000    2.03408600   -2.03308000
 S                  0.25134000    3.68848700   -1.87841500
 O                 -0.89017800    3.44736400   -0.94321400
 O                  1.32011900    4.53594500   -1.30665300
 O                 -0.15282400    4.04071400   -3.25542100
 N                  0.48685400    1.43036300    0.24513700
 C                  0.61607500    0.89937100    1.48563400
 N                  1.48365500   -0.11914500    1.70352500
 C                  1.50044800   -0.52785500    2.95589000
 N                  0.81691500   -0.09866500    3.97853500
 C                 -0.02915500    0.93515900    3.65631100
 N                 -0.15779200    1.45390200    2.43824700
 Cl                 2.62455500   -1.86615900    3.29112000
 N                 -0.73915400    1.38952200    4.71462400
 C                 -1.69055600    2.42784700    4.87160700
 C                 -2.11087800    3.27629500    3.84477800
 C                 -2.21232100    2.58032200    6.16623800
 C                 -3.05061000    4.26807000    4.13849900
 C                 -3.14337100    3.57002900    6.43772300
 C                 -3.57035100    4.42445800    5.41884800
 S                 -3.82228400    3.73673700    8.13078200
 O                 -3.03315900    2.77188700    8.94256800
 O                 -3.59315300    5.16144600    8.48470300
 O                 -5.25821700    3.37992200    7.99308700
 H                  4.37418200   -1.29717200   -2.40522700
 H                  2.00076800   -0.74655200   -0.32481300
 H                  2.87418800    0.36544600   -4.37859400
 H                  1.52331900    2.45609600   -4.05499300
 H                 -0.17284800    2.22092200    0.16177600
 H                 -0.52303400    0.88165600    5.56098800
 H                 -1.71285900    3.16744300    2.84780500
 H                 -1.89610400    1.93626500    6.98078300
 H                 -3.37278900    4.92827500    3.34000000
 H                 -4.29312300    5.20044900    5.63918300
 C                  2.99563100   -2.74122800   -2.47737600
 C                  3.95990500   -3.80008500   -2.31959400
 C                  1.62127600   -3.08571700   -2.66530500
 C                  1.23043600   -4.39478200   -2.70313200
 C                  3.51752900   -5.16144900   -2.31693100
 C                  2.16959700   -5.42290800   -2.50958900
 C                  4.47551200   -6.27921500   -2.10431200
 C                  5.89189400   -5.95046100   -1.86708100
 C                  6.32175100   -4.61573900   -1.88507000
 C                  5.37328500   -3.49338000   -2.15181000
 C                  6.80923900   -6.98185800   -1.62117900
 C                  8.14351900   -6.68233600   -1.38858900
 C                  8.57281900   -5.35047300   -1.40408500
 C                  7.66965800   -4.32485600   -1.65402600
 O                  4.11347700   -7.46620000   -2.11904400
 O                  5.83244600   -2.34475200   -2.22227600
 N                  1.63772500   -6.79437600   -2.54690200
 H                  0.88751900   -2.30280800   -2.81355300
 H                  6.45100700   -8.00339600   -1.61341000
 H                  8.85189800   -7.47931900   -1.19248200
 H                  9.61520900   -5.11627100   -1.21817300
 H                  7.98014100   -3.28798400   -1.67169500
 H                  2.42009700   -7.45610300   -2.38419100
 H                  1.14286300   -6.91139200   -3.45544700
 S                 -0.48444100   -4.94164800   -3.05381700
 O                 -0.78622000   -5.75470200   -1.83615900
 O                 -0.25066300   -5.82882400   -4.24001800
 O                 -1.29525000   -3.75329100   -3.28064600
 H                  0.85674500   -6.85379900   -1.86323300












































































