%chk=287-an.chk
%nproc=8
%mem=30GB
#P UB3LYP/6-311++G(d,p) nosym opt freq SCF=YQC

Reduced

-2 1
C         -0.27045        3.99792        0.10002
C         -1.35367        3.49935        0.82701
C         -1.43318        2.13684        1.11719
C          0.74587        3.13168       -0.34370
C          0.66680        1.75949       -0.05196
C         -0.42962        1.26823        0.68138
C          1.90139        3.64151       -1.11504
C          2.97375        2.71371       -1.57917
C          2.90751        1.37758       -1.30099
C          1.74150        0.85191       -0.52220
O          1.98021        4.83357       -1.37481
O          1.67341       -0.34296       -0.26880
H         -0.22769        5.05843       -0.11451
H         -2.13237        4.17053        1.16577
H         -2.27369        1.75290        1.68080
H         -0.51118        0.21472        0.91770
O          4.00840        3.23092       -2.27966
C          3.94722        0.32930       -1.72242
C          5.17317        0.79849       -2.52097
C          6.10650       -0.37458       -2.84892
C          7.32699        0.11115       -3.64049
C          8.27632       -1.04711       -3.96851
H          4.08472        4.17121       -2.49270
H          3.41978       -0.43609       -2.33314
H          4.31785       -0.16050       -0.79517
H          5.74262        1.53913       -1.91781
H          4.83732        1.25739       -3.47660
H          5.55438       -1.13061       -3.44988
H          6.44794       -0.84913       -1.90243
H          7.87353        0.87060       -3.03855
H          6.98496        0.58429       -4.58755
H          7.73523       -1.80788       -4.57346
H          8.61947       -1.51974       -3.02171
C          9.49381       -0.54412       -4.75398
H         10.02975        0.21971       -4.14808
H          9.14987       -0.07246       -5.70108
C         10.45592       -1.69186       -5.08110
H          9.92365       -2.45658       -5.68893
H         10.80070       -2.16298       -4.13409
C         11.67125       -1.17832       -5.86250
C         12.63704       -2.31341       -6.18904
H         12.20792       -0.41416       -5.25870
H         11.33378       -0.70954       -6.81267
H         13.00773       -2.78524       -5.25415
H         13.50514       -1.91198       -6.75327
H         12.13229       -3.08240       -6.81177







