%chk=179.chk
%nproc=8
%mem=30GB
#P UB3LYP/6-311++G(d,p) nosym opt freq SCRF=(PCM,Solvent=n,n-DiMethylFormamide)

Oxidized

0 1
C                 -3.4280220000     -2.7444960000     -0.3560610000
O                 -2.1340490000     -2.1738160000     -0.1999850000
C                 -1.9880400000     -0.8320830000     -0.2015380000
C                 -3.0886340000      0.0367420000     -0.3547390000
C                 -2.9305040000      1.4045910000     -0.3552190000
C                 -1.6600410000      1.9765900000     -0.2020990000
O                 -1.5816290000      3.3141960000     -0.2124530000
C                 -0.5381430000      1.1311110000     -0.0463840000
C                  0.7824320000      1.7574890000      0.1124420000
O                  0.9119470000      2.9927050000      0.1098290000
C                  1.9687640000      0.8942440000      0.2773340000
C                  3.2328500000      1.4778620000      0.4302900000
C                  4.3531380000      0.6733860000      0.5859250000
C                  4.2187040000     -0.7188940000      0.5898480000
C                  2.9667290000     -1.3019740000      0.4383900000
C                  1.8316310000     -0.5005350000      0.2809400000
C                  0.4976620000     -1.1666260000      0.1203240000
O                  0.4372510000     -2.3848980000      0.1306050000
C                 -0.6961800000     -0.2888220000     -0.0451290000
H                 -3.2711900000     -3.8207550000     -0.3196880000
H                 -4.0994400000     -2.4490480000      0.4570350000
H                 -3.8731580000     -2.4761050000     -1.3199190000
H                 -4.0826700000     -0.3704710000     -0.4751920000
H                 -3.7805630000      2.0654750000     -0.4734560000
H                 -0.6260020000      3.5454080000     -0.0944890000
H                  3.3101270000      2.5576950000      0.4237850000
H                  5.3316410000      1.1245970000      0.7043760000
H                  5.0945610000     -1.3462930000      0.7115470000
H                  2.8408260000     -2.3772760000      0.4385880000


