%chk=034-an.chk
%nproc=8
%mem=30GB
#P UB3LYP/6-311++G(d,p) nosym opt freq SCRF=(PCM,Solvent=n,n-DiMethylFormamide)

Reduced

-2 1
C                 -2.4751200000      1.4057120000      0.3137840000
C                 -1.9653920000     -0.0451810000      0.4353040000
C                 -2.7594190000     -0.9744620000     -0.5073690000
C                 -0.4618800000     -0.1564750000      0.2137230000
C                  0.3392710000     -0.6780360000      1.2342850000
C                  1.7614640000     -0.8283270000      1.1693350000
O                  2.4782020000     -1.3135050000      2.1363310000
C                  2.3422310000     -0.3814380000     -0.0713940000
C                  1.5495990000      0.1360770000     -1.0947750000
C                  0.1240320000      0.2758140000     -1.0361150000
O                 -0.5699040000      0.7493980000     -2.0270350000
C                  3.8364970000     -0.5037340000     -0.2272340000
H                 -2.2404190000      1.7836750000     -0.6846720000
H                 -3.5584340000      1.4683640000      0.4834740000
H                 -1.9771640000      2.0461780000      1.0518430000
H                 -2.1618850000     -0.3790440000      1.4647780000
H                 -2.5783860000     -0.6765680000     -1.5432030000
H                 -2.4292640000     -2.0119570000     -0.3854090000
H                 -3.8410410000     -0.9349290000     -0.2987110000
H                 -0.1328400000     -1.0008870000      2.1639060000
H                  2.0199860000      0.4665590000     -2.0230060000
H                  4.3665040000      0.0173050000      0.5827470000
H                  4.1685360000     -0.0934350000     -1.1896440000
H                  4.1648250000     -1.5519950000     -0.1609440000


