%chk=047.chk
%nproc=8
%mem=30GB
#P UB3LYP/6-311++G(d,p) nosym opt freq SCRF=(PCM,Solvent=n,n-DiMethylFormamide)

Oxidized

0 1
C                  2.6587340000      1.4080970000      0.9043670000
C                  2.3854050000      0.5201810000     -0.3303020000
C                  3.6533730000     -0.2288960000     -0.7564730000
C                  1.2020780000     -0.3872910000     -0.0672130000
C                  1.2966880000     -1.6889320000      0.2548120000
C                  0.1109190000     -2.5198300000      0.5442590000
O                  0.2223730000     -3.7015340000      0.8410270000
C                 -1.2155880000     -1.8745680000      0.4686280000
C                 -1.3803580000     -0.5809910000      0.1391660000
C                 -2.7583640000      0.0502520000      0.0649790000
C                 -2.9377660000      1.1961460000      1.0803730000
C                 -3.1246430000      0.4976200000     -1.3643280000
C                 -0.1624600000      0.2429440000     -0.1710790000
O                 -0.2688420000      1.4092700000     -0.5157630000
H                  3.4711970000      2.1073590000      0.6889990000
H                  2.9553830000      0.7967340000      1.7619670000
H                  1.7785280000      1.9908870000      1.1801110000
H                  2.0854250000      1.1887120000     -1.1432330000
H                  4.4326390000      0.4886290000     -1.0253760000
H                  3.4728400000     -0.8698950000     -1.6233460000
H                  4.0516370000     -0.8514280000      0.0503890000
H                  2.2478750000     -2.2038710000      0.3253330000
H                 -2.0600520000     -2.5177600000      0.6961600000
H                 -3.4577220000     -0.7454020000      0.3456850000
H                 -2.3031840000      2.0475150000      0.8321230000
H                 -3.9787350000      1.5314510000      1.0751050000
H                 -2.6981090000      0.8672580000      2.0953560000
H                 -4.1663020000      0.8300750000     -1.3890170000
H                 -3.0197000000     -0.3260510000     -2.0757990000
H                 -2.4932690000      1.3233170000     -1.6937660000


