%chk=138-an.chk
%nproc=8
%mem=30GB
#P UB3LYP/6-311++G(d,p) nosym opt freq

Reduced

-2 1
C                  4.7030440000     -0.6737320000      0.9150810000
O                  4.2763600000      0.3023560000     -0.0120270000
C                  2.9038880000      0.4603190000     -0.1842460000
C                  2.5302160000      1.5479200000     -1.0191370000
C                  1.1949020000      1.7883950000     -1.2555830000
C                  0.1675370000      0.9899670000     -0.6965930000
C                 -1.2194520000      1.3065060000     -0.9909460000
O                 -1.5598310000      2.2887780000     -1.7361230000
C                 -2.1871510000      0.4164150000     -0.3767400000
C                 -3.5686590000      0.6316750000     -0.6017830000
C                 -4.5405400000     -0.1772920000     -0.0473310000
C                 -4.1542800000     -1.2670880000      0.7825410000
C                 -2.8164690000     -1.5054360000      1.0200150000
C                 -1.7927460000     -0.6954040000      0.4636720000
C                 -0.4079860000     -1.0056600000      0.7554900000
O                 -0.0598430000     -1.9910940000      1.4994470000
C                  0.5556400000     -0.1170770000      0.1402540000
C                  1.9425940000     -0.3478590000      0.3760830000
H                  4.4277970000     -1.6873570000      0.5964120000
H                  4.2719520000     -0.4990400000      1.9109400000
H                  5.7918260000     -0.6040390000      0.9780870000
H                  3.3100170000      2.1677950000     -1.4513530000
H                  0.8804570000      2.6123460000     -1.8883710000
H                 -3.8291580000      1.4717400000     -1.2384690000
H                 -5.5939980000      0.0163480000     -0.2406670000
H                 -4.9127030000     -1.9095050000      1.2267630000
H                 -2.4916090000     -2.3292670000      1.6479710000
H                  2.1781960000     -1.1907100000      1.0136870000


