%chk=066.chk
%nproc=8
%mem=30GB
#P UB3LYP/6-311++G(d,p) nosym opt freq

Oxidized

0 1
C          1.13173       -0.61306        1.95462
C          0.67458       -1.68427        1.04222
C         -0.37677       -1.51686        0.23638
C         -1.12809       -0.24977        0.22049
C         -0.66685        0.82707        1.11220
C          0.38167        0.65377        1.92882
O          2.08744       -0.82084        2.68773
O         -2.10093       -0.09961       -0.50414
S          0.88660        1.97177        2.92418
C          0.83679        1.31279        4.57885
C         -0.39648        1.20169        5.23153
C          2.02318        0.96976        5.23233
C          1.96999        0.47860        6.53658
C         -0.43986        0.71179        6.53671
C          0.74109        0.34760        7.18570
O          2.26148        2.31668        2.61302
O         -0.12479        3.01747        2.89396
H          1.23805       -2.61036        1.06591
H         -0.72208       -2.29480       -0.43469
H         -1.23073        1.75295        1.05158
H         -1.31937        1.50630        4.74344
H          2.98518        1.06719        4.73281
H          2.88821        0.19948        7.04808
H         -1.39187        0.62281        7.05480
H          0.70575       -0.03161        8.20451












