%chk=057.chk
%nproc=8
%mem=30GB
#P UB3LYP/6-311++G(d,p) nosym opt freq

Oxidized

0 1
C         -0.48181        0.99544       -0.24587
C         -1.48386        0.07892       -0.81779
C         -1.31457       -1.23620       -0.75053
C         -0.12123       -1.79471       -0.10242
C          0.92669       -0.89616        0.49468
C          0.77029        0.47629        0.43573
O         -0.70203        2.19286       -0.34370
O         -0.00411       -3.01038       -0.06207
C          1.73412        1.53366        0.98958
C          3.04854        1.34586        1.71314
O          1.43167        2.70876        0.84527
H         -2.37099        0.48014       -1.29989
H         -2.06249       -1.89873       -1.17697
H          3.41238        0.33668        1.89476
H          2.97579        1.83023        2.70994
H          3.84616        1.86105        1.13705
C          2.10629       -1.58896        1.13264
H          2.04369       -2.69417        1.07557
H          2.14165       -1.34768        2.21494
H          3.03721       -1.31466        0.59502







