%chk=013.chk
%nproc=8
%mem=30GB
#P UB3LYP/genecp nosym opt freq 

Oxidized

0 1
I    -2.8453061132   -2.0371255762    0.0035238628
C    -1.1756447335   -0.7394763335    0.0002727546
C    -1.3087181407    0.5765896748   -0.0158991235
C    -0.1676500346    1.4844478459   -0.0183590312
O    -0.3959515490    2.7226793984   -0.0342964769
C     1.1772049447    0.9265397208   -0.0024214556
C     1.3029805005   -0.3901290491    0.0136981098
I     3.2440170538   -1.2084892148    0.0368463252
C     0.1674884567   -1.3053178346    0.0162857920
O     0.3086651505   -2.5622732282    0.0318278303
H    -2.3417681504    0.9446455759   -0.0274605565
H     2.0346826153    1.5879090205   -0.0040180311

H C O 0
6-311++G(d,p)
****
I 0
def2TZVP
****

I 0
def2TZVP







