%chk=274.chk
%nproc=8
%mem=30GB
#P UB3LYP/6-311++G(d,p) nosym opt freq

Oxidized

0 1
C         -1.76183        3.09051        0.17963
C         -2.95800        2.37084        0.12197
C         -2.93326        0.98290       -0.01946
C         -0.52296        2.42620        0.08931
C         -0.50320        1.02816       -0.05948
C         -1.71250        0.31155       -0.10910
C          0.75994        3.17884        0.15573
C          2.08912        2.47116        0.00034
C          2.05482        1.11645       -0.14386
C          0.79686        0.34107       -0.16154
O          0.70993        4.37568        0.39623
O          0.84743       -0.87541       -0.28065
N          3.36438        3.18275        0.00264
C          3.48594        4.60914       -0.28111
C          4.64072        2.52459        0.27016
H         -1.80715        4.16686        0.29057
H         -3.90573        2.88951        0.18814
H         -3.86109        0.42693       -0.06100
H         -1.71385       -0.76598       -0.21932
H          2.94903        0.52836       -0.27955
H          2.55843        5.09367       -0.61442
H          4.19750        4.75924       -1.12046
H          3.87911        5.13835        0.61384
H          4.56288        1.46558        0.56364
H          5.14775        3.02904        1.11947
H          5.29463        2.59580       -0.62609









