%chk=158-an.chk
%nproc=8
%mem=30GB
#P UB3LYP/6-311++G(d,p) nosym opt freq

Reduced

-2 1
N    -2.4678908633    0.6544028841    2.3140962239
C    -2.4066577634    0.3144259983    0.9340474592
C    -3.5150138485    0.1604506373    0.1434603943
C    -3.4393756773   -0.1695388344   -1.1935746646
C    -2.1931198378   -0.3520095256   -1.7573252996
C    -1.0387459012   -0.2114711274   -1.0149366134
C     0.2787603806   -0.4103044183   -1.6352044078
O     0.3912862133   -0.7113561165   -2.8486545221
C     1.4935749073   -0.2608205525   -0.8475069791
C     2.7430711590   -0.4455785546   -1.4202388690
C     3.8694971084   -0.2965313546   -0.6472703842
Cl    5.4328522585   -0.5322734550   -1.3826270183
C     3.7302468494    0.0350945512    0.6871835219
Cl    5.1428028608    0.2306853796    1.6919591088
C     2.4933314455    0.2180647056    1.2544513638
C     1.3519470801    0.0700710470    0.4835971606
C     0.0381578662    0.2682428777    1.1017067128
O    -0.0821349059    0.5698318573    2.3162205238
C    -1.1667170948    0.1195816042    0.3188173077
H    -2.2175821294   -0.0330341249    3.0550740643
H    -2.7653544383    1.6021045365    2.6221389060
H    -4.4817129496    0.3107923553    0.6167242960
H    -4.3105426875   -0.2885239825   -1.8066324983
H    -2.0709713366   -0.6137861059   -2.8089046508
H     2.8346558249   -0.7084425163   -2.4807272123
H     2.3556354797    0.4799222345    2.3041260765


