%chk=122-an.chk
%nproc=8
%mem=30GB
#P UB3LYP/6-311++G(d,p) nosym opt freq

Reduced

-2 1
Cl                -2.5535560000      2.7900240000      1.8119860000
C                 -2.4011540000      1.1768460000      1.0257110000
C                 -3.6053190000      0.5079280000      0.9441620000
C                 -3.6529690000     -0.7787340000      0.3467330000
C                 -2.4962190000     -1.3324280000     -0.1403000000
C                 -1.2466620000     -0.6623960000     -0.0675680000
C                 -0.1061000000     -1.3488250000     -0.6150900000
O                 -0.1983990000     -2.5212400000     -1.1507210000
C                  1.1441200000     -0.6413150000     -0.5263860000
C                  2.2890680000     -1.2901020000     -1.0588140000
C                  3.5345490000     -0.7154150000     -1.0324220000
C                  3.6896890000      0.5719560000     -0.4549640000
C                  2.5900090000      1.2205390000      0.0686920000
Cl                 2.9953030000      2.8383720000      0.7485970000
C                  1.2669950000      0.6874470000      0.0788840000
C                  0.1108480000      1.3867550000      0.6418880000
O                  0.2030440000      2.5322940000      1.1755890000
C                 -1.1593030000      0.6661760000      0.5442540000
H                 -4.5007070000      0.9752980000      1.3374390000
H                 -4.6014050000     -1.3079520000      0.2816930000
H                 -2.4750640000     -2.3116550000     -0.6069370000
H                  2.1135490000     -2.2709400000     -1.4880610000
H                  4.4006090000     -1.2283140000     -1.4457010000
H                  4.6588760000      1.0556810000     -0.4190640000





