%chk=103-an.chk
%nproc=8
%mem=30GB
#P UB3LYP/6-311++G(d,p) nosym opt freq

Reduced

-2 1
C         -0.06465        2.00671        5.07892
C          1.15129        1.38607        4.50856
C          1.41793        1.29762        3.19368
C          0.40565        1.87227        2.24921
C         -0.79904        2.51576        2.80506
C         -1.04318        2.57530        4.11574
O         -0.21297        2.01957        6.29559
O          0.53259        1.83008        1.03154
S         -2.45944        3.36925        4.72057
C         -3.36153        1.97126        5.48634
C         -4.41387        2.53871        6.43604
C         -4.01872        1.11154        4.40955
C          2.68850        0.64884        2.60621
C          3.65175        0.11226        3.69697
C          3.49343        1.67733        1.78328
C          2.32008       -0.55850        1.71800
H          1.82074        1.00106        5.26952
H         -1.47773        2.93565        2.07016
H         -2.67229        1.35349        6.06983
H         -3.95318        3.14051        7.22751
H         -4.96323        1.72608        6.92461
H         -5.14725        3.16144        5.91101
H         -3.27563        0.65867        3.74480
H         -4.72112        1.68947        3.79825
H         -4.58150        0.29130        4.86925
H          3.17611       -0.66206        4.31025
H          3.99772        0.91426        4.35959
H          4.54496       -0.33960        3.24845
H          3.72963        2.56426        2.38289
H          2.95950        2.01253        0.88932
H          4.44234        1.24961        1.43811
H          1.71355       -1.28491        2.27157
H          3.21968       -1.07836        1.36731
H          1.75902       -0.26880        0.82475









