%chk=313-an.chk
%nproc=8
%mem=30GB
#P UB3LYP/6-311++G(d,p) nosym opt freq SCRF=(PCM,Solvent=n,n-DiMethylFormamide)

Reduced

-2 1
C                 -5.5866270000      0.0673920000     -0.6126440000
C                 -5.7296790000     -0.3902810000     -1.9087350000
C                 -4.5871260000     -0.5404940000     -2.7257510000
C                 -4.3221680000      0.3937430000     -0.0652500000
C                 -3.1596530000      0.2355660000     -0.8946920000
C                 -3.3390440000     -0.2326660000     -2.2202410000
C                 -4.2479660000      0.8827390000      1.3166730000
C                 -2.9318170000      1.1900410000      1.7385630000
C                 -1.7788320000      1.0220380000      0.9099420000
C                 -1.8189010000      0.5457410000     -0.4046970000
S                 -2.6782620000      1.9131900000      3.3551410000
C                 -2.5502960000      0.5406450000      4.5061500000
C                 -2.5745050000     -0.7993120000      4.1037700000
C                 -2.4081390000      0.8467020000      5.8657720000
C                 -2.2878970000     -0.1589500000      6.8307170000
C                 -2.4561130000     -1.8056610000      5.0596830000
C                 -2.3125620000     -1.4950910000      6.4131180000
C                 -2.1414360000      0.2018900000      8.2910000000
O                 -5.3176440000      0.9996710000      2.0359540000
O                 -0.7607410000      0.3819930000     -1.1586570000
H                 -6.4520290000      0.1902720000      0.0286970000
H                 -6.7136050000     -0.6319720000     -2.2985860000
H                 -4.6915320000     -0.8964800000     -3.7462270000
H                 -2.4520800000     -0.3399890000     -2.8345050000
H                 -0.8082700000      1.2789940000      1.3264600000
H                 -2.6878500000     -1.0393110000      3.0534290000
H                 -2.3928970000      1.8870950000      6.1795420000
H                 -2.4753580000     -2.8441950000      4.7452320000
H                 -2.2214220000     -2.2901880000      7.1456600000
H                 -1.2678520000      0.8396450000      8.4565180000
H                 -2.0295570000     -0.6904870000      8.9099180000
H                 -3.0153440000      0.7537270000      8.6513570000





