%chk=237-an.chk
%nproc=8
%mem=30GB
#P UB3LYP/6-311++G(d,p) nosym opt freq

Reduced

-2 1
C          5.72776       -5.30616        1.20110
C          6.68303       -5.19737        0.20106
C          6.57217       -4.18232       -0.74384
C          4.65969       -4.39805        1.25648
C          4.53383       -3.36513        0.30758
C          5.50812       -3.25332       -0.71367
C          3.67905       -4.57464        2.34967
C          2.55374       -3.63494        2.42785
C          2.41600       -2.65125        1.54145
C          3.36972       -2.43852        0.43402
O          3.78070       -5.47089        3.17814
O          3.14933       -1.50505       -0.32482
H          5.81600       -6.10147        1.93988
C          5.53761       -2.21957       -1.80952
H          7.51169       -5.90004        0.15618
H          7.33151       -4.11139       -1.52314
H          1.84924       -3.78430        3.23752
H          1.58682       -1.95405        1.59411
H          4.72746       -1.49678       -1.79882
H          5.50053       -2.71973       -2.78403
H          6.47030       -1.64744       -1.74651






