%chk=197.chk
%nproc=8
%mem=30GB
#P UB3LYP/6-311++G(d,p) nosym opt freq

Oxidized

0 1
C                 -4.0023070000     -1.0410800000      0.2345410000
C                 -2.6508070000     -0.3774460000      0.2566380000
C                 -2.4842080000      0.9859760000      0.4522530000
C                 -3.6582640000      1.9122930000      0.6492450000
C                 -1.1685760000      1.5374730000      0.4704270000
O                 -1.0521610000      2.8569770000      0.6728690000
C                 -0.0414060000      0.7220520000      0.2800120000
C                  1.2906640000      1.3134360000      0.3001160000
O                  1.4628250000      2.5327180000      0.4853240000
C                  2.4586270000      0.4218910000      0.0941400000
C                  3.7481390000      0.9637010000      0.1084360000
C                  4.8519520000      0.1417440000     -0.0829360000
C                  4.6788410000     -1.2300550000     -0.2906010000
C                  3.4020080000     -1.7777180000     -0.3066330000
C                  2.2846050000     -0.9584630000     -0.1149260000
C                  0.9280040000     -1.5574380000     -0.1348830000
O                  0.7867050000     -2.7798040000     -0.3210280000
C                 -0.2164770000     -0.6776130000      0.0684730000
C                 -1.5127030000     -1.2104040000      0.0567990000
O                 -1.7450110000     -2.5154730000     -0.1409910000
H                 -3.9856020000     -1.9571830000      0.8355470000
H                 -4.2613500000     -1.3477640000     -0.7909660000
H                 -4.7899270000     -0.3838400000      0.6065640000
H                 -4.1752670000      1.6970870000      1.5921410000
H                 -3.3303750000      2.9508550000      0.6763890000
H                 -4.3885210000      1.7996990000     -0.1562440000
H                 -0.0806820000      3.0652150000      0.6518880000
H                  3.8599040000      2.0282860000      0.2728580000
H                  5.8494590000      0.5659920000     -0.0710560000
H                  5.5421980000     -1.8684720000     -0.4395100000
H                  3.2451830000     -2.8371300000     -0.4657570000
H                 -0.8576660000     -2.9487110000     -0.2562790000



























