%chk=349-an.chk
%nproc=8
%mem=30GB
#P UB3LYP/6-311++G(d,p) nosym opt freq

Reduced

-2 1
C    -3.5694442332    0.1994975178    0.8410479063
C    -3.5705252241   -0.1705580753   -0.4872610522
C    -2.3937917794   -0.3630950203   -1.1875834042
C    -1.1639931855   -0.1832326671   -0.5516033919
N    -0.0207855855   -0.3724744622   -1.2399919929
C     1.1592855218   -0.1916098617   -0.6001238254
C     2.3641848060   -0.3774284715   -1.2765942219
C     3.5565222407   -0.1945965459   -0.6296491857
C     3.5764204159    0.1762794778    0.7014982197
C     2.3944936919    0.3647641997    1.3873441549
C     1.1757584891    0.1782022609    0.7272163792
N     0.0299841027    0.3645213563    1.4051179596
C    -1.1557677255    0.1861828945    0.7743764255
C    -2.3547396437    0.3736522721    1.4566909256
H    -4.4989216828    0.3432844368    1.3643328250
H    -4.5514387656   -0.3019965273   -0.9512635720
H    -2.4281781545   -0.6523141692   -2.2253857498
H     2.2890577505   -0.6674240984   -2.3169677598
H     4.4945946430   -0.3386236013   -1.1539445672
H     4.5428990375    0.3080388302    1.1670382057
H     2.4207981201    0.6535567112    2.4236217328
H    -2.2964128396    0.6653735430    2.5035376238


