%chk=167.chk
%nproc=8
%mem=30GB
#P UB3LYP/6-311++G(d,p) nosym opt freq

Oxidized

0 1
N     3.5380990125   -1.2976115575   -0.0299905281
C     2.8506655599   -0.0529639075   -0.1528284887
C     3.5703713377    1.1163050423   -0.3436155753
C     2.9187590459    2.3155257464   -0.4625563709
C     1.5370841284    2.3147279380   -0.3861672736
C     0.8048869707    1.1607799230   -0.1966700156
C    -0.6510449357    1.2096144633   -0.1226013116
O    -1.2969370045    2.2855708352   -0.2259300727
C    -1.4730843149   -0.0040101840    0.0795591675
C    -2.8443527639    0.0692799176    0.1458079476
N    -3.5355510515    1.2994305402    0.0250369733
C    -3.5847840553   -1.0712776036    0.3340450090
C    -2.9259162168   -2.2763619275    0.4533503577
C    -1.5498432688   -2.3337837079    0.3847854754
C    -0.7799164004   -1.1910366993    0.1946346525
C     0.6747878270   -1.2523656111    0.1222439251
O     1.2618454126   -2.3570771092    0.2325406918
C     1.4673609628   -0.0481386356   -0.0770764369
H     3.5837430718   -1.7610648072    0.9064306951
H     3.9702911384   -1.6961168047   -0.8888616012
H     4.6488359663    1.0657054969   -0.3966384713
H     3.4979549230    3.2131893855   -0.6104984158
H     1.0381568599    3.2694530296   -0.4819381081
H    -3.9749000555    1.6397818307   -0.8491674434
H    -3.6153857761    1.9198904379    0.8750335720
H    -4.6744223558   -1.0611203684    0.3928933728
H    -3.4596286251   -3.2116619840    0.6036449669
H    -0.9970753926   -3.2646636793    0.4745333066


