%chk=212-an.chk
%nproc=8
%mem=30GB
#P UB3LYP/6-311++G(d,p) nosym opt freq

Reduced

-2 1
O                  3.9193860000     -2.4781910000     -0.1051770000
C                  3.0295120000     -1.5587630000     -0.0232830000
C                  3.3701570000     -0.1744390000      0.2089710000
C                  4.7304620000      0.1973790000      0.3564690000
C                  5.1118500000      1.5041300000      0.5782580000
C                  4.1172480000      2.5176850000      0.6628030000
C                  2.7862210000      2.1838090000      0.5209410000
C                  2.3603640000      0.8492060000      0.2928020000
C                  0.9376370000      0.5875720000      0.1544970000
O                  0.0999700000      1.5622090000      0.2186940000
C                  0.5692850000     -0.8017280000     -0.0609130000
C                 -0.7999550000     -1.2616590000     -0.1932390000
C                 -1.0833650000     -2.5984570000     -0.4087110000
C                 -0.0625060000     -3.5764940000     -0.5044280000
C                  1.2468970000     -3.1812950000     -0.3740390000
C                  1.6083940000     -1.8306770000     -0.1517100000
N                 -1.9759730000     -0.4220360000     -0.1185600000
C                 -2.2891230000      0.1363440000      1.1983790000
C                 -3.7929720000      0.4837030000      1.2784700000
C                 -4.3290900000      1.0048710000     -0.0755790000
C                 -3.1834570000      1.5918560000     -0.9066850000
C                 -2.1475350000      0.5087210000     -1.2465740000
H                  5.4602680000     -0.6031090000      0.2853240000
H                  6.1642120000      1.7600530000      0.6879420000
H                  4.4065650000      3.5523480000      0.8382840000
H                  2.0047150000      2.9342120000      0.5790710000
H                 -2.1297410000     -2.8727080000     -0.5051390000
H                 -0.3189940000     -4.6201730000     -0.6751360000
H                  2.0687150000     -3.8872610000     -0.4342320000
H                 -1.6659910000      1.0142580000      1.4153440000
H                 -2.0466390000     -0.6289610000      1.9414070000
H                 -3.9355740000      1.2463980000      2.0561420000
H                 -4.3720540000     -0.3952320000      1.5872660000
H                 -5.1308000000      1.7388380000      0.0775530000
H                 -4.7741960000      0.1732090000     -0.6363150000
H                 -3.5619320000      2.0421000000     -1.8336470000
H                 -2.6866200000      2.3886870000     -0.3433310000
H                 -1.2024860000      0.9932730000     -1.5120540000
H                 -2.5028560000     -0.0796780000     -2.1086620000


