%chk=054.chk
%nproc=8
%mem=30GB
#P UB3LYP/6-311++G(d,p) nosym opt freq Int=Acc2E=11

Oxidized

0 1
 C                 -0.56836100    2.07392300    0.00805900
 C                 -1.85425900    1.29198200   -0.03155600
 C                 -1.80057800   -0.06015000    0.02263000
 C                 -0.46668300   -0.74110800    0.10005000
 C                  0.81541800    0.03506800    0.04633400
 C                  0.77161800    1.38772000   -0.00460600
 O                 -0.61348900    3.29633700    0.05255800
 O                 -0.42323100   -1.96055900    0.19978500
 C                  1.96138600    2.34526000   -0.06215600
 C                  2.84130100    2.32062100    1.20388300
 C                  2.78168900    2.22836500   -1.36288400
 C                  2.10647700   -0.77465800    0.06026700
 C                  2.31509700   -1.54868900    1.37921000
 C                  2.24676000   -1.69807600   -1.16818200
 C                 -3.10910800    2.16024900   -0.11625000
 C                 -4.00674600    2.07857800    1.13491700
 C                 -3.89611800    1.97698800   -1.42978800
 C                 -3.02956900   -0.96136800    0.01672300
 C                 -3.08335700   -1.89225500   -1.21288200
 C                 -3.20232700   -1.74869800    1.33303500
 H                  1.50972100    3.33695100   -0.08479400
 H                  3.56406800    3.14084100    1.16046000
 H                  3.40355400    1.39235300    1.32280600
 H                  2.23436600    2.46229900    2.10193000
 H                  3.33617800    1.29119200   -1.44277700
 H                  3.50719800    3.04590700   -1.41016700
 H                  2.13477500    2.30967500   -2.24045300
 H                  2.91977600   -0.05603400   -0.00412800
 H                  2.23694400   -0.88417700    2.24429000
 H                  3.31666800   -1.98945500    1.38762100
 H                  1.58616200   -2.35012300    1.49197800
 H                  1.51732800   -2.50692200   -1.14693900
 H                  3.24829000   -2.13863300   -1.17966400
 H                  2.11889900   -1.13945700   -2.09983400
 H                 -2.73023000    3.18199200   -0.13770300
 H                 -4.78757700    2.84245000    1.07300300
 H                 -3.42765300    2.27075900    2.04191200
 H                 -4.50036000    1.11172800    1.25140900
 H                 -4.67657600    2.74087000   -1.49568400
 H                 -4.38169600    1.00254700   -1.51186300
 H                 -3.24134600    2.09809000   -2.29688400
 H                 -3.89179400   -0.30365300   -0.06062300
 H                 -4.04952200   -2.40522900   -1.23892700
 H                 -2.29688600   -2.64536700   -1.18003200
 H                 -2.98300200   -1.32546900   -2.14297200
 H                 -4.16979600   -2.26001700    1.32644400
 H                 -3.18532300   -1.08045200    2.19861300
 H                 -2.41974600   -2.49590800    1.45783200







