%chk=048-an.chk
%nproc=8
%mem=30GB
#P UB3LYP/6-311++G(d,p) nosym opt freq SCF=YQC 

Reduced

-2 1
 C                 -1.51791000    0.32912000    0.90240900
 C                 -1.99664200    1.46673500    0.30190800
 C                 -1.07036100    2.38650200   -0.35088300
 O                 -1.47212300    3.44688000   -0.91641700
 C                  0.32886900    2.02135100   -0.31669900
 C                  0.80760000    0.88374100    0.28381200
 C                 -0.11868300   -0.03605100    0.93655900
 O                  0.28307000   -1.09645600    1.50205100
 H                  0.99557700    2.72284200   -0.80944200
 C                  2.26954100    0.49759600    0.32230300
 C                  3.25237500    1.45521700   -0.35498500
 C                  4.70723700    0.97945100   -0.26192400
 C                  5.71024600    1.92690500   -0.93196600
 C                  7.16271600    1.44338800   -0.83467900
 C                  8.22426600    2.40696700   -1.39896200
 C                  9.63886000    1.91413400   -1.06104400
 C                  8.07894100    2.62186000   -2.91254900
 C                 -3.45859300    1.85285000    0.26334700
 C                 -4.44112000    0.89675900    0.94324000
 C                 -5.89592500    1.37277900    0.85055900
 C                 -6.89866200    0.42675700    1.52302500
 C                 -8.35106100    0.91057700    1.42616500
 C                 -9.41245400   -0.05177500    1.99283300
 C                -10.82716800    0.44098300    1.65531400
 C                 -9.26594300   -0.26435200    3.50663300
 H                 -2.18460800   -0.37234700    1.39519500
 H                  2.37109400   -0.50388700   -0.11679300
 H                  2.55874300    0.35648800    1.37226700
 H                  3.17134500    2.45165400    0.09704400
 H                  2.98222200    1.57931800   -1.41109600
 H                  4.79255300   -0.01660900   -0.71652200
 H                  4.98032700    0.85270200    0.79416300
 H                  5.63009300    2.92047200   -0.47063900
 H                  5.42586500    2.05626200   -1.98265400
 H                  7.25901500    0.47354500   -1.34326300
 H                  7.39559500    1.25304000    0.22104300
 H                  8.08282300    3.37946900   -0.90679100
 H                  9.77324100    1.80043400    0.01906400
 H                 10.40220300    2.61045400   -1.42352700
 H                  9.83233500    0.93942400   -1.52362500
 H                  8.84776300    3.30507800   -3.28798700
 H                  7.10574000    3.04308900   -3.17408700
 H                  8.18669000    1.67239200   -3.44996700
 H                 -3.74845700    1.99165600   -0.78676400
 H                 -3.55977000    2.85529700    0.70027000
 H                 -4.17004000    0.77454300    1.99933500
 H                 -4.36082000   -0.10054400    0.49299900
 H                 -6.16984400    1.49780800   -0.20552000
 H                 -5.98057900    2.36963500    1.30352900
 H                 -6.61343200    0.29905400    2.57368400
 H                 -6.81921900   -0.56760100    1.06328200
 H                 -8.58474800    1.09933300    0.37033500
 H                 -8.44663700    1.88125100    1.93329800
 H                 -9.27173200   -1.02509200    1.50206600
 H                -11.59043400   -0.25452800    2.01950900
 H                -10.96240200    0.55304100    0.57514000
 H                -11.01995200    1.41647300    2.11653300
 H                -10.03467900   -0.94672700    3.88377700
 H                 -9.37292900    0.68598900    4.04265900
 H                 -8.29266400   -0.68549700    3.76801800









