%chk=324-rad.chk
%nproc=8
%mem=30GB
#P UB3LYP/6-311++G(d,p) nosym  opt freq

Radical

-1 2
C                 -1.7807870000      2.7622440000     -0.7245060000
C                 -2.8813240000      1.9534180000     -0.5152490000
C                 -2.6959700000      0.5996060000     -0.1706130000
C                 -0.4603470000      2.2770310000     -0.6041760000
C                 -0.2689870000      0.8990500000     -0.2532650000
C                 -1.4113720000      0.0955920000     -0.0456940000
C                  0.6530910000      3.2029870000     -0.8439650000
C                  2.0348130000      2.6486110000     -0.7069930000
C                  2.1490560000      1.2498840000     -0.3498210000
C                  1.0862790000      0.4020380000     -0.1294900000
O                  0.4480430000      4.4006160000     -1.1488510000
O                  3.0520490000      3.3527230000     -0.8896850000
H                 -1.8909630000      3.8074340000     -0.9908280000
H                 -3.8846540000      2.3570890000     -0.6155370000
H                 -3.5508950000     -0.0483180000     -0.0037250000
H                 -1.3081670000     -0.9532300000      0.2190570000
H                  3.1683330000      0.8899570000     -0.2603440000
N                  1.2854800000     -0.9349860000      0.2091100000
C                  2.5824030000     -1.5453130000      0.3645620000
C                  2.4483180000     -3.0181310000      0.7432940000
H                  0.4806310000     -1.5081640000      0.3834700000
H                  3.1661300000     -1.0199320000      1.1358090000
H                  3.1605600000     -1.4570720000     -0.5673290000
H                  1.9117120000     -3.1337080000      1.6906440000
H                  3.4343680000     -3.4761620000      0.8578810000
H                  1.9057100000     -3.5749850000     -0.0276080000





