%chk=155.chk
%nproc=8
%mem=30GB
#P UB3LYP/6-311++G(d,p) nosym opt freq SCRF=(PCM,Solvent=n,n-DiMethylFormamide)

Oxidized

0 1
C                 -2.2601070000      3.2303260000      4.1064720000
C                 -3.5070340000      2.6731000000      4.3620750000
C                 -3.9347450000      1.5510990000      3.6680420000
C                 -3.1153680000      0.9591320000      2.6948960000
C                 -1.8335040000      1.5144630000      2.4177310000
C                 -1.4311510000      2.6607520000      3.1414550000
C                 -0.1036200000      3.3190650000      2.9138700000
C                 -0.9180610000      0.9337460000      1.4061440000
C                  0.7838240000      2.7773280000      1.8950500000
C                  0.3942790000      1.6289240000      1.1612110000
C                  2.0495300000      3.3850250000      1.6178710000
C                  2.8648050000      2.8153740000      0.6068680000
C                  2.4555240000      1.7016520000     -0.0895790000
C                  1.2179760000      1.0980950000      0.1807840000
O                  0.1944020000      4.3124040000      3.5950700000
O                 -1.1829920000     -0.0813400000      0.7711670000
N                  2.4916470000      4.4782860000      2.2861720000
O                 -3.5055840000     -0.1297480000      2.0018050000
C                 -4.7949860000     -0.7010100000      2.2534470000
H                 -1.9166050000      4.1052440000      4.6402690000
H                 -4.1547010000      3.1139120000      5.1111570000
H                 -4.9081990000      1.1354180000      3.8827400000
H                  3.8236130000      3.2759440000      0.3935500000
H                  3.0984580000      1.2863690000     -0.8582420000
H                  0.8948810000      0.2226890000     -0.3630290000
H                  1.9045980000      4.8851180000      2.9994930000
H                  3.3802900000      4.8898800000      2.0523140000
H                 -4.8704480000     -1.5482660000      1.5758360000
H                 -5.5942720000      0.0136670000      2.0331610000
H                 -4.8797510000     -1.0498200000      3.2854410000





