%chk=170-an.chk
%nproc=8
%mem=30GB
#P UB3LYP/6-311++G(d,p) nosym opt freq

Reduced

-2 1
C     3.9396551720    1.1940349350   -1.2432336544
N     2.4802000839    1.1542143515   -1.0150189070
C     1.9962284241    0.0413974792   -0.2907305696
C     2.8855516745   -0.9393176051    0.1707415685
C     2.4464773877   -2.0335975623    0.8794944600
C     1.1095686555   -2.1898876470    1.1532917363
C     0.2103655692   -1.2362817959    0.7092431975
C    -1.2120815257   -1.4274362520    1.0150635412
O    -1.5866807940   -2.4449103969    1.6695614333
C    -2.1996609709   -0.4545589116    0.5712591094
C    -3.5512627360   -0.5840930645    0.8309428905
C    -4.4675456487    0.3537800442    0.3982760555
C    -4.0582716485    1.4625983295   -0.3151256910
C    -2.7088818646    1.5882632747   -0.5722140828
C    -1.7922054404    0.6482961560   -0.1383581471
C    -0.3535362345    0.8293918381   -0.4403963585
O    -0.0308531650    1.8546377316   -1.0925488583
C     0.6612312209   -0.1233394927   -0.0121957891
H     4.2815315619    0.2517380516   -1.7383905557
H     4.4921856186    1.2940238000   -0.2937753069
H     4.1724106373    2.0151768980   -1.9372010665
H     1.9461136728    1.9436066403   -1.4045099538
H     3.9512697650   -0.8245512007   -0.0413073525
H     3.1693524835   -2.7725201375    1.2200283698
H     0.7299692488   -3.0442141720    1.7116282354
H    -3.8657716807   -1.4468591599    1.3854985802
H    -5.5196457515    0.2414660080    0.6072259115
H    -4.7672908437    2.2119739000   -0.6639565832
H    -2.3584228715    2.4369679603   -1.1232922128


