%chk=056-an.chk
%nproc=8
%mem=30GB
#P UB3LYP/6-311++G(d,p) nosym opt freq

Reduced

-2 1
C                 -0.5478080000      1.1632990000     -0.2798850000
C                 -1.4130570000      0.1071640000     -0.7802180000
C                 -1.1498230000     -1.2365380000     -0.6615200000
C                  0.0338190000     -1.7667830000     -0.0166960000
C                  0.8862540000     -0.7614240000      0.4761960000
C                  0.6674970000      0.6688870000      0.3838720000
O                 -0.8848180000      2.3782620000     -0.4410430000
O                  0.2425520000     -3.0512130000      0.0737020000
C                  1.6291860000      1.6004750000      0.9359000000
C                  2.9144220000      1.0713490000      1.6330860000
O                  1.5604550000      2.8461460000      0.9254220000
H                 -2.3210260000      0.4527760000     -1.2759770000
H                 -1.8521510000     -1.9696700000     -1.0651260000
H                  1.7796030000     -1.1341640000      0.9645220000
H                  3.0407110000     -0.0093170000      1.6769640000
H                  2.9225610000      1.4722350000      2.6540990000
H                  3.7742830000      1.5090850000      1.1113110000


