%chk=148.chk
%nproc=8
%mem=30GB
#P UB3LYP/6-311++G(d,p) nosym opt freq

Oxidized

0 1
C         -3.03594        3.70295        0.17935
C         -4.29243        3.12441        0.34393
C         -4.46161        1.74055        0.33629
C         -1.91718        2.87343        0.03997
C         -2.06852        1.48552        0.05145
C         -3.34315        0.91822        0.19693
C         -0.58100        3.47746       -0.12961
C          0.59863        2.59750       -0.24431
C          0.44821        1.20946       -0.23286
C         -0.89285        0.60473       -0.10152
C          1.87148        3.16467       -0.37487
C          2.97950        2.32634       -0.47689
C          2.84302        0.93914       -0.48781
C          1.57186        0.37899       -0.35793
O         -0.45361        4.69510       -0.18325
O         -1.02918       -0.61279       -0.12693
H         -3.46698       -0.16352        0.20260
H          1.45921       -0.70398       -0.35368
H         -2.92924        4.78484        0.16534
H          1.99854        4.24434       -0.39038
H          3.71430        0.29769       -0.58625
O          4.24133        2.89623       -0.64653
C          4.94856        3.00271        0.54564
C          6.28065        3.63093        0.26223
O          4.57399        2.65020        1.65576
O         -5.40539        3.96082        0.43911
H          6.13764        4.63343       -0.14863
H          6.84488        3.00533       -0.43396
H          6.84750        3.71343        1.19400
C         -5.86262        4.11346        1.74324
C         -7.04973        5.03006        1.73441
O         -5.39315        3.60187        2.75057
H         -5.44958        1.30248        0.44761
H         -6.74948        6.02107        1.38534
H         -7.44460        5.12063        2.75038
H         -7.83327        4.61647        1.09443







