%chk=232-rad.chk
%nproc=8
%mem=30GB
#P UB3LYP/6-311++G(d,p) nosym opt freq

Radical

-1 2
C          5.92189       -5.22100        1.11249
C          6.82398       -5.08907        0.05222
C          6.61370       -4.10959       -0.92748
C          4.80923       -4.37415        1.19468
C          4.59992       -3.39934        0.21960
C          5.50204       -3.26550       -0.84351
C          3.86352       -4.52149        2.31845
C          2.70581       -3.60806        2.36953
C          2.50541       -2.67486        1.43603
C          3.43001       -2.50271        0.29904
O          4.02444       -5.36951        3.18507
O          3.22382       -1.64124       -0.54441
H          6.08369       -5.98189        1.87516
H          5.33685       -2.50338       -1.60422
Cl         7.68734       -3.89189       -2.26250
Cl         8.17508       -6.16383        0.00993
H          2.02799       -3.73688        3.20600
H          1.65553       -2.00241        1.47097








