%chk=123-rad.chk
%nproc=8
%mem=30GB
#P UB3LYP/6-311++G(d,p) nosym  opt freq

Radical

-1 2
C                 -2.8894880000     -1.9245870000     -0.1391100000
C                 -2.3997670000     -0.4959560000     -0.0503960000
C                 -3.3553680000      0.5055250000      0.0500040000
C                 -3.0040600000      1.8659160000      0.1373610000
C                 -1.6760260000      2.2257290000      0.1236660000
C                 -0.6623910000      1.2493230000      0.0235520000
C                  0.7253050000      1.7239670000      0.0165850000
O                  1.0074540000      2.9469870000      0.0957650000
C                  1.7609760000      0.7018060000     -0.0873970000
C                  3.1209970000      1.0847780000     -0.1002810000
C                  4.1261330000      0.1443140000     -0.1972890000
C                  3.7987680000     -1.2273130000     -0.2856810000
C                  2.4757450000     -1.6217120000     -0.2747460000
C                  1.4295230000     -0.6774180000     -0.1762630000
C                  0.0418080000     -1.1564590000     -0.1694910000
O                 -0.2005820000     -2.3885210000     -0.2503740000
C                 -1.0116130000     -0.1395520000     -0.0657150000
H                 -3.9844370000     -1.9391530000     -0.1089020000
H                 -2.4986130000     -2.5364630000      0.6760510000
H                 -2.5479230000     -2.4121280000     -1.0541040000
H                 -4.4051280000      0.2248790000      0.0608840000
H                 -3.7802910000      2.6218140000      0.2146950000
H                 -1.3609130000      3.2602800000      0.1886040000
H                  3.3392410000      2.1443010000     -0.0309120000
H                  5.1666270000      0.4559240000     -0.2057710000
H                  4.5880110000     -1.9696460000     -0.3621000000
H                  2.1960110000     -2.6666340000     -0.3412570000


