%chk=344-an.chk
%nproc=8
%mem=30GB
#P UB3LYP/6-311++G(d,p) nosym opt freq SCRF=(PCM,Solvent=n,n-DiMethylFormamide)

Reduced

-2 1
O                  0.0157050000     -2.4362130000     -0.8498160000
C                  0.0408500000     -1.2389450000     -0.4570830000
C                  1.3220380000     -0.6171030000     -0.1627870000
C                  2.4396360000     -1.5158250000     -0.1823140000
C                  3.7353760000     -1.1295030000      0.0526690000
C                  4.0298640000      0.2411810000      0.3089990000
C                  2.9856790000      1.1351340000      0.3511450000
C                  1.6197550000      0.7725160000      0.1599960000
C                  0.6828870000      1.8346790000      0.2219380000
C                 -0.6852330000      1.8486200000      0.0837620000
C                 -1.6371320000      0.7689910000     -0.0125860000
C                 -3.0059380000      1.1259580000      0.1399100000
C                 -4.0452080000      0.2037930000      0.0581320000
C                 -3.7462610000     -1.1354810000     -0.1583700000
C                 -2.4006630000     -1.5178880000     -0.2837950000
C                 -1.3349900000     -0.6105350000     -0.2292280000
H                  2.2091460000     -2.5534490000     -0.3904800000
H                  4.5374190000     -1.8649050000      0.0358230000
H                  5.0541740000      0.5741690000      0.4620360000
H                  3.1968710000      2.1860560000      0.5431510000
H                  1.1337100000      2.8137060000      0.3878740000
H                 -1.1485270000      2.8289460000      0.1823910000
H                 -3.2420860000      2.1754080000      0.2967050000
H                 -5.0792130000      0.5383900000      0.1453410000
H                 -4.5387360000     -1.8751890000     -0.2390560000
H                 -2.1391210000     -2.5525080000     -0.4643560000


