%chk=297-an.chk
%nproc=8
%mem=30GB
#P UB3LYP/6-311++G(d,p) nosym opt freq

Reduced

-2 1
C         -0.68635        2.47391        0.82296
C         -1.64114        2.55885       -0.19090
C         -1.38050        2.00045       -1.44131
C          0.53334        1.82712        0.58313
C          0.79764        1.26788       -0.66332
C         -0.16481        1.35617       -1.67927
C          1.53225        1.74542        1.65613
C          2.81447        1.04968        1.38429
C          3.07114        0.50109        0.18682
C          2.08041        0.58404       -0.93043
O          1.34430        2.23059        2.76815
O          2.28362        0.11408       -2.04561
O          3.71097        1.00437        2.44533
H         -0.89665        2.91302        1.79696
H         -2.58834        3.06116       -0.00566
H         -2.12374        2.06645       -2.23327
H          0.02818        0.92420       -2.66042
H          3.26833        1.48260        3.17970
S          4.56795       -0.31803       -0.16122
C          4.05458       -1.97069        0.27088
C          3.47256       -2.80366       -0.68797
C          4.24837       -2.44981        1.56909
C          3.07071       -4.09776       -0.34697
C          3.84729       -3.74415        1.91028
C          3.24208       -4.57310        0.95847
C          2.84655       -5.97587        1.31344
H          3.32861       -2.45201       -1.70798
H          4.71505       -1.81998        2.32335
H          2.62550       -4.73220       -1.11023
H          4.01389       -4.10089        2.92426
H          2.57056       -6.04856        2.37068
H          3.67769       -6.66007        1.11701
H          1.97775       -6.29584        0.72863








