%chk=123-rad.chk
%nproc=8
%mem=30GB
#P UB3LYP/6-311++G(d,p) nosym opt freq

Radical

-1 2
C    -2.7422993447   -1.8789299969   -0.1479639135
C    -2.3861831327   -0.4381599208   -0.0516106793
C    -3.4125962619    0.4996206303    0.0471883535
C    -3.0150516322    1.8148976795    0.1330919668
C    -1.6943852572    2.2068253873    0.1242271429
C    -0.7070189430    1.2547380015    0.0254903648
C     0.7093496605    1.6397475153    0.0133658862
O     0.9672223986    2.8520341163    0.0956660065
C     1.7922156737    0.6584311975   -0.0902851731
C     3.1102058731    1.0449410286   -0.0994860157
C     4.1140458264    0.1129290279   -0.1972298853
C     3.7825447605   -1.2341222348   -0.2873796427
C     2.4508585319   -1.5937932541   -0.2758015823
C     1.4239862375   -0.6627109672   -0.1774696847
C     0.0224159156   -1.0649041816   -0.1670366834
O    -0.2882449240   -2.2760289701   -0.2477351092
C    -1.0584533811   -0.0720093088   -0.0625869012
H    -3.8666372486   -1.9897949088   -0.1100102096
H    -2.3866828497   -2.4000128520    0.7545901391
H    -2.4533327471   -2.3393519474   -1.1026485467
H    -4.4570092809    0.1891777374    0.0541717500
H    -3.8139000286    2.5650025435    0.2114925849
H    -1.4260249493    3.2752235047    0.1955699891
H     3.3925942143    2.0793486424   -0.0310361683
H     5.1630249707    0.3686608453   -0.2084173273
H     4.5740189991   -1.9754698000   -0.3648993302
H     2.2053369191   -2.6362895151   -0.3458797448


