%chk=178-rad.chk
%nproc=8
%mem=30GB
#P UB3LYP/6-311++G(d,p) nosym opt freq

Radical

-1 2
O    -4.6645461732   -0.7352816754    1.2018634412
C    -3.4603311370   -0.2471851465    0.7116922969
C    -3.3988535214    0.9074432555   -0.0373934007
C    -2.2159951533    1.4204168068   -0.5403702907
C    -1.0317028896    0.7632838994   -0.2936045926
C     0.2446302338    1.2575462922   -0.7983471211
O     0.3046033428    2.3195588031   -1.4878535729
C     1.5031350521    0.5672777010   -0.5412511618
C     2.7216639535    1.0076278129   -1.0029238066
C     3.9108723905    0.3344289984   -0.7465583883
C     3.8712894728   -0.8198727605   -0.0008897773
C     2.6553921090   -1.2746220964    0.4696256835
C     1.4666942258   -0.5914731084    0.2068050972
C     0.1938506021   -1.0877613366    0.7123283947
O     0.1557836530   -2.1561669250    1.4027223443
C    -1.0773266360   -0.3938491927    0.4547582026
C    -2.2612912177   -0.9033305719    0.9556533603
H    -5.1923682609   -1.3924554941    0.6084277096
H    -4.3206100468    1.4253837155   -0.2336073020
H    -2.1815692715    2.3361549446   -1.1323933582
H     2.7747011478    1.9063774400   -1.5867749203
H     4.8700837958    0.6811319971   -1.1100060100
H     4.7997827823   -1.3380757360    0.1945103496
H     2.5838543404   -2.1725929605    1.0557165204
H    -2.2517427943   -1.8139646626    1.5378703022


