%chk=157-an-PCM.chk
%nproc=8
%mem=30GB
#P UB3LYP/6-311++G(d,p) SCRF=(PCM,Solvent=n,n-DiMethylFormamide)

Reduced 

-3 1
C                 -1.7684960000      1.8793410000     -5.1443690000
C                 -1.6646910000      0.5574040000     -5.5366070000
C                 -1.2574840000     -0.4226880000     -4.5941460000
C                 -1.4809610000      2.2992030000     -3.8226050000
C                 -1.1039000000      1.3007520000     -2.8601060000
C                 -0.9859550000     -0.0442470000     -3.2939570000
C                 -1.5930770000      3.7101520000     -3.4797370000
C                 -0.8408510000      1.6421210000     -1.4757020000
C                 -1.2987180000      4.0712120000     -2.0993560000
C                 -0.9532400000      3.0575620000     -1.1350710000
C                 -1.3681850000      5.4560480000     -1.6564510000
C                 -1.1513180000      5.7673930000     -0.2971740000
C                 -0.8283800000      4.7454700000      0.6164500000
C                 -0.7234120000      3.4332280000      0.2112890000
O                 -1.9574780000      4.5573070000     -4.3781690000
O                 -0.5209830000      0.7599910000     -0.6098480000
N                 -1.6286280000      6.4382690000     -2.5753440000
H                 -2.0735410000      2.6487950000     -5.8455170000
H                 -1.8884160000      0.2629640000     -6.5614600000
H                 -1.1669240000     -1.4646200000     -4.9011420000
H                 -0.6775670000     -0.7711860000     -2.5494790000
S                 -1.1672940000      7.4755760000      0.3406780000
H                 -0.6772560000      5.0235090000      1.6535440000
H                 -1.9314800000      6.0724800000     -3.4806870000
H                 -1.9660330000      7.3151210000     -2.1947590000
H                 -0.4726790000      2.6434400000      0.9097160000
O                 -2.2311870000      8.2062770000     -0.4340690000
O                 -1.4946120000      7.3638060000      1.7956190000
O                  0.1897540000      8.0575820000      0.1072130000





