%chk=308.chk
%nproc=8
%mem=30GB
#P UB3LYP/6-311++G(d,p) nosym opt freq

Oxidized

0 1
C                 -4.0778290000      3.6027200000      1.5359270000
C                 -4.5614760000      3.8227520000      0.2494790000
C                 -3.9749290000      3.1827440000     -0.8322410000
C                 -2.8931870000      2.3093630000     -0.6540400000
C                 -2.3874540000      2.0726750000      0.6439330000
C                 -3.0046060000      2.7383110000      1.7270730000
C                 -2.5136020000      2.5281180000      3.1266560000
C                 -1.3802000000      1.6137130000      3.3233000000
C                 -0.7753520000      0.9684180000      2.3111700000
C                 -1.2403260000      1.1548810000      0.8917230000
O                 -3.0335930000      3.0939080000      4.0770090000
O                 -0.6636550000      0.5503000000      0.0041570000
H                 -4.5150640000      4.0876980000      2.3988150000
H                 -4.3517040000      3.3537600000     -1.8367880000
O                 -2.3311900000      1.6919510000     -1.7194660000
C                  0.3803640000      0.0359300000      2.5077190000
H                 -5.3970610000      4.4937770000      0.0867010000
H                 -1.0573830000      1.4904720000      4.3522630000
H                 -2.7923600000      1.9614230000     -2.5221330000
H                  0.6479270000     -0.0385910000      3.5623250000
H                  1.2493770000      0.3768550000      1.9384450000
H                  0.1392430000     -0.9597110000      2.1255920000


