%chk=346-rad.chk
%nproc=8
%mem=30GB
#P UB3LYP/6-311++G(d,p) nosym  opt freq SCRF=(PCM,Solvent=n,n-DiMethylFormamide)

Radical

-1 2
O                 -0.0584500000     -1.1909850000      1.2563240000
C                 -0.4632240000     -0.3854230000      0.3703310000
C                 -1.9535960000     -0.2429600000      0.2061840000
C                 -2.7545620000     -1.0279340000      1.0629020000
C                 -4.1424680000     -0.9851150000      1.0084690000
C                 -4.7880980000     -0.1517730000      0.0909750000
C                 -4.0136480000      0.6320860000     -0.7646330000
C                 -2.6202950000      0.5927680000     -0.7140900000
C                  0.4634470000      0.3851760000     -0.4702420000
O                  0.0587240000      1.1909250000     -1.3561760000
C                  1.9536220000      0.2428820000     -0.3064190000
C                  2.7543060000      1.0282360000     -1.1630160000
C                  4.1421840000      0.9855480000     -1.1089110000
C                  4.7880180000      0.1518880000     -0.1918240000
C                  4.0138850000     -0.6324490000      0.6637500000
C                  2.6205150000     -0.5931600000      0.6134470000
H                 -2.2426080000     -1.6696370000      1.7694550000
H                 -4.7269180000     -1.6039500000      1.6840610000
H                 -5.8725320000     -0.1154630000      0.0453470000
H                 -4.4982000000      1.2861370000     -1.4845820000
H                 -2.0254490000      1.2012160000     -1.3783640000
H                  2.2420500000      1.6701280000     -1.8692440000
H                  4.7264330000      1.6046950000     -1.7843990000
H                  5.8724410000      0.1156940000     -0.1464740000
H                  4.4986000000     -1.2867130000      1.3833290000
H                  2.0258230000     -1.2018180000      1.2775870000


