%chk=172-rad-PCM.chk
%nproc=8
%mem=30GB
#P UB3LYP/6-311++G(d,p) SCRF=(PCM,Solvent=n,n-DiMethylFormamide)

Radical PCM in DMF 

-1 2
C                 -1.3918950000      2.0090810000     -4.7285380000
C                 -1.4307890000      0.6573880000     -5.0068000000
C                 -1.3355770000     -0.2804980000     -3.9553330000
C                 -1.2596850000      2.4767800000     -3.4020550000
C                 -1.1641050000      1.5362920000     -2.3476880000
C                 -1.2038340000      0.1574750000     -2.6527020000
C                 -1.2206870000      3.9130160000     -3.1469180000
C                 -1.0221250000      1.9613290000     -0.9589430000
C                 -1.0937010000      4.3512110000     -1.7651480000
C                 -0.9959320000      3.3908730000     -0.6885240000
C                 -1.0353090000      5.7599620000     -1.4640880000
C                 -0.8330240000      6.1609520000     -0.1426020000
C                 -0.7383700000      5.2321860000      0.8986150000
C                 -0.8416760000      3.8598700000      0.6660740000
O                 -1.2901890000      4.7154500000     -4.1345430000
O                 -0.9193960000      1.0728620000     -0.0510840000
H                 -1.4616770000      2.7520160000     -5.5139880000
H                 -1.5343190000      0.3146020000     -6.0322550000
H                 -1.3659350000     -1.3443230000     -4.1724320000
H                 -1.1275740000     -0.5380180000     -1.8255230000
H                 -0.5981350000      5.5968050000      1.9090250000
H                 -0.7631650000      7.2157800000      0.0940440000
N                 -1.1886250000      6.6926950000     -2.4705310000
N                 -0.8082370000      2.9606370000      1.7133300000
C                 -0.8947610000      8.0870510000     -2.2951990000
C                 -0.4082630000      3.3245350000      3.0433570000
H                 -1.2024650000      6.2702530000     -3.4019430000
H                 -0.7660420000      1.9885230000      1.3980530000
H                  0.1274690000      8.2719730000     -1.9215900000
H                 -1.5878160000      8.5750200000     -1.5936540000
H                 -0.9977660000      8.5888380000     -3.2600890000
H                 -1.1211140000      4.0138780000      3.5200450000
H                  0.5838700000      3.8071600000      3.0819720000
H                 -0.3680520000      2.4201270000      3.6547880000





