%chk=138-rad.chk
%nproc=8
%mem=30GB
#P UB3LYP/6-311++G(d,p) nosym opt freq

Radical

-1 2
C     4.7116562823   -0.7403659178    0.8979911853
O     4.1897092413    0.2652582594    0.0862902020
C     2.8585831747    0.4915472792   -0.1640306391
C     2.4833571983    1.5197703005   -0.9851609268
C     1.1686283467    1.8033466722   -1.2791517439
C     0.1926151382    0.9864717756   -0.6978364389
C    -1.2286552650    1.2568078283   -0.9874689330
O    -1.5322838869    2.2195212271   -1.7536205468
C    -2.2132554758    0.3989563518   -0.3747409480
C    -3.5489772301    0.6216423596   -0.6225160882
C    -4.4926956399   -0.1973540810   -0.0377352821
C    -4.1129287193   -1.2332691943    0.7896465025
C    -2.7756938360   -1.4638850546    1.0436705778
C    -1.8339555720   -0.6401944331    0.4551255915
C    -0.4331272219   -0.9094156871    0.7427458080
O    -0.1249304431   -1.8630000896    1.5020528990
C     0.5655517763   -0.0462368992    0.1266569532
C     1.9045248329   -0.3056662833    0.4032066423
H     4.9280742628   -1.6633103727    0.2841515052
H     4.0595919220   -0.9793080077    1.7531386832
H     5.7230638324   -0.3837890634    1.2466185163
H     3.2839271415    2.1380224126   -1.4216875981
H     0.8623563059    2.6113924223   -1.9250782884
H    -3.8840931116    1.4242737673   -1.2658538343
H    -5.5547154015   -0.0087913256   -0.2436919261
H    -4.8532234025   -1.8749590549    1.2477873007
H    -2.4881888736   -2.2847609813    1.6985489258
H     2.1450846240   -1.1427042102    1.0680163003


