%chk=159-an-PCM.chk
%nproc=8
%mem=30GB
#P UB3LYP/6-311++G(d,p) SCRF=(PCM,Solvent=n,n-DiMethylFormamide)

Reduced 

-2 1
N                 -2.8040160000      1.4205720000      1.3358690000
C                 -2.4845300000      0.4919310000      0.3653500000
C                 -3.4370140000     -0.1999440000     -0.3579800000
Br                -5.3455770000      0.1262890000     -0.0090360000
C                 -3.1255950000     -1.2206660000     -1.2871560000
C                 -1.8132300000     -1.5843930000     -1.4266060000
Br                -1.5430770000     -2.8851680000     -2.8835690000
C                 -0.7310170000     -0.9711050000     -0.7229610000
C                  0.6349420000     -1.4424640000     -0.8219490000
O                  0.9787740000     -2.5283430000     -1.3923780000
C                  1.6344010000     -0.5640060000     -0.2287430000
C                  3.0034030000     -0.8926230000     -0.3764350000
C                  4.0076500000     -0.1106200000      0.1588020000
C                  3.6675370000      1.0576470000      0.8923640000
C                  2.3421550000      1.4015420000      1.0553510000
C                  1.2907210000      0.6191190000      0.5073640000
C                 -0.0762560000      1.0215640000      0.7223960000
O                 -0.3329660000      2.0869380000      1.4396040000
C                 -1.0799200000      0.1912600000      0.1175630000
H                 -1.9606400000      1.9929090000      1.5654430000
H                 -3.7024870000      1.8667740000      1.2271670000
H                 -3.8975700000     -1.6562600000     -1.9052860000
H                  3.2227780000     -1.7960000000     -0.9365210000
H                  5.0518040000     -0.3857370000      0.0216340000
H                  4.4511670000      1.6767960000      1.3259740000
H                  2.0485640000      2.2839870000      1.6137350000





