%chk=095-rad.chk
%nproc=8
%mem=30GB
#P UB3LYP/6-311++G(d,p) nosym  opt freq

Radical

-1 2
C                  2.1493880000      3.8071900000      5.5283970000
C                  3.0460070000      3.1851450000      4.5877530000
C                  2.6179600000      2.2918810000      3.6423670000
C                  1.2261310000      1.9123430000      3.5273180000
C                  0.3276590000      2.5485480000      4.4725850000
C                  0.7385190000      3.4485610000      5.4235630000
O                  2.5698140000      4.6252460000      6.4147080000
O                  0.8157920000      1.0872580000      2.6616470000
C                 -0.2179530000      4.1713200000      6.3665230000
C                 -1.6314410000      3.6067640000      6.4268940000
O                  0.2833150000      4.1903220000      7.7078920000
H                  4.0940650000      3.4597770000      4.6709050000
H                  3.3120830000      1.8318240000      2.9445050000
H                 -0.7164720000      2.2687370000      4.3775890000
H                 -0.2847170000      5.2153030000      6.0113060000
H                 -2.1371550000      3.6815120000      5.4609830000
H                 -2.2057150000      4.1736750000      7.1645990000
H                 -1.6151140000      2.5578290000      6.7351610000
H                  1.2195970000      4.4619560000      7.5943170000


