%chk=191-rad.chk
%nproc=8
%mem=30GB
#P UB3LYP/6-311++G(d,p) nosym  opt freq

Radical

-1 2
C                  4.8887210000     -2.9376850000     -0.3164740000
C                  5.6471830000     -2.0818850000     -1.0765360000
C                  5.1050370000     -0.8613290000     -1.5266910000
C                  3.5574010000     -2.6076980000      0.0243190000
C                  2.9745030000     -1.3758820000     -0.4159440000
C                  3.7996700000     -0.5096800000     -1.2077770000
C                  2.8157600000     -3.5628190000      0.8315510000
C                  1.4547860000     -3.2411300000      1.1887080000
C                  0.8614890000     -2.0154850000      0.7558970000
C                  1.5976980000     -1.0514630000     -0.0542010000
C                  0.6991120000     -4.1533430000      1.9783770000
C                 -0.6118300000     -3.8439420000      2.3225090000
C                 -0.4842050000     -1.7324040000      1.1279190000
C                 -1.1961230000     -2.6461810000      1.9012740000
O                  3.3605270000     -4.6572640000      1.2115000000
O                  1.0271440000      0.0278040000     -0.4158480000
O                  1.2387450000     -5.3218980000      2.4013080000
H                  5.2764390000     -3.8816020000      0.0438950000
H                  6.6698810000     -2.3357700000     -1.3381150000
H                  5.7193190000     -0.2019380000     -2.1240270000
O                  3.2520510000      0.6654550000     -1.6312820000
H                  2.1746870000     -5.3164890000      2.0331380000
O                 -1.0939010000     -0.5868810000      0.7450300000
H                 -2.2185660000     -2.4028240000      2.1686200000
H                 -1.1693360000     -4.5530630000      2.9246620000
H                 -0.3890650000     -0.1032070000      0.2076560000
C                  4.0328910000      1.5430410000     -2.4115490000
H                  3.3893740000      2.3973250000     -2.6235950000
H                  4.3457690000      1.0834850000     -3.3583010000
H                  4.9251010000      1.8885820000     -1.8730420000


