%chk=156-rad.chk
%nproc=8
%mem=30GB
#P UB3LYP/6-311++G(d,p) nosym  opt freq SCRF=(PCM,Solvent=n,n-DiMethylFormamide)

Radical

-1 2
C                 -1.8396950000      1.9160740000     -5.1437300000
C                 -1.7480750000      0.6001200000     -5.5504170000
C                 -1.3240830000     -0.3904920000     -4.6371730000
C                 -1.5147440000      2.2955510000     -3.8222270000
C                 -1.0916460000      1.3015430000     -2.9053700000
C                 -1.0034910000     -0.0395750000     -3.3411020000
C                 -1.6146750000      3.6987880000     -3.4334620000
C                 -0.7578940000      1.6304950000     -1.5234770000
C                 -1.2496000000      4.0463960000     -2.0639820000
C                 -0.8689620000      3.0222160000     -1.1145020000
C                 -1.2948210000      5.4141170000     -1.6406370000
C                 -1.0057700000      5.7230710000     -0.3150780000
C                 -0.6690180000      4.7394430000      0.6164920000
C                 -0.5923780000      3.3922950000      0.2501100000
O                 -2.0151090000      4.5510630000     -4.2866450000
O                 -0.3865950000      0.6966000000     -0.7394400000
N                 -1.5660360000      6.4514510000     -2.5387620000
N                 -0.2768020000      2.4250900000      1.1810640000
C                  0.2233820000      2.7290130000      2.4917320000
H                 -2.1601880000      2.6981960000     -5.8215670000
H                 -2.0002220000      0.3257280000     -6.5706500000
H                 -1.2513000000     -1.4264950000     -4.9552700000
H                 -0.6777050000     -0.7776920000     -2.6180380000
H                 -1.0296810000      6.7649520000     -0.0051780000
H                 -0.4624120000      5.0326840000      1.6385410000
H                 -1.9558260000      6.1050130000     -3.4168800000
H                 -2.0320620000      7.2472980000     -2.1282490000
H                 -0.1496660000      1.4993270000      0.7646770000
H                 -0.5244910000      3.2383020000      3.1182710000
H                  1.1216720000      3.3698880000      2.4743390000
H                  0.4860410000      1.7931090000      2.9900890000


