%chk=322-rad-PCM.chk
%nproc=8
%mem=30GB
#P UB3LYP/6-311++G(d,p) SCRF=(PCM,Solvent=n,n-DiMethylFormamide)

Radical PCM in DMF 

-1 2
C                 -1.6416920000      2.8808700000     -0.7110000000
C                 -2.8407790000      2.2689980000     -0.3966480000
C                 -2.8546890000      0.9220280000      0.0199850000
C                 -0.4130060000      2.1920130000     -0.6275190000
C                 -0.4331650000      0.8261300000     -0.2043720000
C                 -1.6666310000      0.2181410000      0.1123920000
C                  0.8291810000      2.8981280000     -0.9754030000
C                  2.1020550000      2.1215140000     -0.8695350000
C                  2.0009480000      0.7384830000     -0.4327270000
C                  0.8184650000      0.1253980000     -0.1195900000
O                  0.8159210000      4.0936820000     -1.3424000000
O                  3.2144780000      2.6240730000     -1.1411590000
O                  0.7129180000     -1.1941530000      0.2984840000
C                  1.8955180000     -1.9492050000      0.4067020000
C                  1.5942520000     -3.3426360000      0.8688850000
C                  0.3909170000     -3.8354040000      1.1487480000
H                 -1.6025250000      3.9150830000     -1.0338870000
H                 -3.7715680000      2.8239240000     -0.4701140000
H                 -3.7934820000      0.4361620000      0.2681710000
H                 -1.6699260000     -0.8168560000      0.4318190000
H                  2.9486050000      0.2173250000     -0.3715210000
H                  2.5943590000     -1.4742010000      1.1129550000
H                  2.4173920000     -1.9914290000     -0.5621500000
H                  2.4758640000     -3.9739940000      0.9703510000
H                 -0.4983280000     -3.2247240000      1.0545150000
H                  0.2688070000     -4.8613780000      1.4785280000





