%chk=017-an.chk
%nproc=8
%mem=30GB
#P UB3LYP/6-311++G(d,p) nosym opt freq SCRF=(PCM,Solvent=n,n-DiMethylFormamide)

Reduced

-2 1
C                  2.5253330000     -0.8927360000     -0.1340740000
C                  1.2172920000     -0.1562900000     -0.0000950000
C                  1.1492730000      1.2041670000      0.3193880000
Cl                 2.7171350000      2.0896070000      0.5762120000
C                 -0.0242500000      2.0149940000      0.4751920000
O                 -0.0392520000      3.2612460000      0.7690540000
C                 -1.1781040000      1.1934700000      0.2460850000
C                 -1.2133610000     -0.1674760000     -0.0766580000
C                 -2.5035780000     -0.9158550000     -0.2925160000
C                  0.0109590000     -0.9109740000     -0.2149750000
O                  0.0262370000     -2.1815690000     -0.5142520000
Cl                -2.7670940000      2.0644510000      0.4033670000
H                  3.1144520000     -0.8694210000      0.7944930000
H                  2.2918960000     -1.9297870000     -0.3873800000
H                  3.1679500000     -0.4631280000     -0.9164890000
H                 -3.1508010000     -0.8969280000      0.5966030000
H                 -3.0988730000     -0.4928020000     -1.1149410000
H                 -2.2452140000     -1.9509690000     -0.5290140000


