%chk=294.chk
%nproc=8
%mem=30GB
#P UB3LYP/6-311++G(d,p) nosym opt freq

Oxidized

0 1
C                 -6.37336800    0.97285900   -1.78779500
 C                 -6.48834400    1.26093900   -3.14424600
 C                 -5.53556600    0.77822600   -4.04324800
 C                 -5.30216300    0.20050700   -1.33238800
 C                 -4.34204100   -0.28664300   -2.23445900
 C                 -4.46635400    0.00693600   -3.59122300
 C                 -5.16637400   -0.11360300    0.10143500
 C                 -4.00146800   -0.93730700    0.53561300
 C                 -3.06805300   -1.42684200   -0.31715900
 C                 -3.18542000   -1.11955200   -1.75805600
 O                 -5.95329000    0.26051700    0.96383000
 O                 -2.35956500   -1.53653400   -2.55826100
 O                 -3.95737600   -1.16391800    1.85844300
 C                 -1.89719800   -2.24411300    0.15029400
 H                 -7.10005600    1.33574200   -1.07126600
 H                 -7.31770300    1.86016200   -3.50170700
 H                 -5.62681200    1.00395500   -5.09967100
 H                 -3.71870500   -0.37543300   -4.27495900
 H                 -4.74120500   -0.72012300    2.23480300
 C                 -0.65107700   -1.38166300    0.44342000
 C                  0.54864200   -2.23325800    0.89856700
 C                  1.77987600   -1.40759000    1.19571200
 C                  2.68311200   -1.06650700    0.18230300
 C                  2.04004900   -0.93135400    2.48323000
 C                  3.15947000   -0.14315200    2.74661000
 C                  4.06259500    0.19997300    1.73602800
 C                  3.80058900   -0.27954900    0.44603800
 C                  5.28135200    1.05237400    2.04092800
 C                  6.60732100    0.29880000    1.79318800
 C                  5.27565300    2.39363000    1.27397500
 C                  6.49854600    3.25535900    1.61950100
 C                  7.82940300    1.16185400    2.13791600
 C                  7.81193400    2.49761600    1.38228400
 H                 -1.64997700   -2.97163100   -0.62690800
 H                 -2.17899800   -2.79163100    1.05342800
 H                 -0.88922000   -0.64569900    1.21814300
 H                 -0.37785800   -0.82149900   -0.45579900
 H                  0.77852200   -2.96785600    0.11888100
 H                  0.26563700   -2.80204000    1.79119900
 H                  2.51193500   -1.42668000   -0.82787400
 H                  1.36273000   -1.18347000    3.29388000
 H                  3.33642800    0.20767500    3.75894800
 H                  4.47846900   -0.04235100   -0.36727200
 H                  5.24358400    1.29380200    3.11173600
 H                  6.66054900   -0.00015100    0.73885300
 H                  6.61696400   -0.62663300    2.37796100
 H                  4.35143000    2.93741600    1.49446300
 H                  5.26753700    2.19278300    0.19537600
 H                  6.44135700    3.55708900    2.67369700
 H                  6.48158800    4.17947700    1.03218100
 H                  8.74957400    0.61138300    1.91550200
 H                  7.83928700    1.35851700    3.21812900
 H                  7.92878700    2.30575200    0.30747600
 H                  8.66542400    3.11453600    1.68241500


