%chk=088-rad-PCM.chk
%nproc=8
%mem=30GB
#P UB3LYP/6-311++G(d,p) SCRF=(PCM,Solvent=n,n-DiMethylFormamide)

Radical PCM in DMF 

-1 2
C                  1.8427370000      0.9031210000     -0.7440240000
C                  0.5685620000      1.3887350000     -0.2292010000
C                 -0.4366050000      0.5430040000      0.1769180000
C                 -0.3225650000     -0.9076570000      0.0951070000
C                  0.9517440000     -1.3953310000     -0.4283400000
C                  1.9608860000     -0.5515430000     -0.8191080000
O                  2.7817950000      1.6576130000     -1.0865330000
O                 -1.2399200000     -1.6924560000      0.4283840000
O                  3.1583130000     -1.0894780000     -1.2227240000
C                  3.5276640000     -0.8284740000     -2.5767430000
Br                 0.4139360000      3.2978020000     -0.1306190000
Br                -2.1090900000      1.1826810000      0.8639110000
H                  4.4981030000     -1.3068580000     -2.7234180000
H                  3.6101360000      0.2448570000     -2.7577140000
H                  2.7990470000     -1.2764700000     -3.2643660000
O                  1.1095380000     -2.7478480000     -0.6068040000
C                  1.1169140000     -3.5317290000      0.5863070000
H                  1.2330500000     -4.5691180000      0.2661790000
H                  0.1808390000     -3.4136800000      1.1353060000
H                  1.9686860000     -3.2540780000      1.2201400000





