%chk=296-PCM.chk
%nproc=8
%mem=30GB
#P UB3LYP/6-311++G(d,p) SCRF=(PCM,Solvent=n,n-DiMethylFormamide)

Quinone PCM in DMF 

0 1
C                 -1.6481450000      3.4030620000     -0.3207740000
C                 -2.6517800000      3.4351720000      0.6421260000
C                 -2.6514290000      2.5024890000      1.6811920000
C                 -0.6438830000      2.4351290000     -0.2407900000
C                 -0.6401810000      1.4961290000      0.8021110000
C                 -1.6503560000      1.5363760000      1.7619860000
C                  0.4269190000      2.3840690000     -1.2496560000
C                  1.4786850000      1.3337450000     -1.1180540000
C                  1.5100650000      0.4118970000     -0.1211920000
C                  0.4348040000      0.4495650000      0.9004070000
O                  0.5112070000      3.1562870000     -2.1988370000
O                  0.4072820000     -0.3553110000      1.8208860000
O                  2.4018270000      1.3842120000     -2.0932640000
C                  2.5794080000     -0.6466200000      0.0106470000
C                  2.5756060000     -1.6547180000     -1.1764640000
C                  3.9970190000     -0.0683140000      0.2029010000
C                  4.9858710000     -1.1841990000      0.6046550000
C                  4.6851600000     -2.5602270000     -0.0555130000
C                  3.9526650000     -2.3193960000     -1.3872560000
C                  5.9613040000     -3.4291300000     -0.1859980000
C                  5.6863170000     -4.8181910000     -0.7989190000
C                  6.6762610000     -3.6049610000      1.1710810000
C                  7.9444430000     -4.4648750000      1.0706520000
C                  7.6536250000     -5.8362430000      0.4508650000
C                  6.9518310000     -5.6829180000     -0.9031530000
H                 -1.6263380000      4.1153050000     -1.1364610000
H                 -3.4331520000      4.1841020000      0.5848990000
H                 -3.4343140000      2.5290000000      2.4306790000
H                 -1.6356220000      0.8059800000      2.5611870000
H                  2.1413460000      2.1294250000     -2.6690960000
H                  2.3326910000     -1.1972090000      0.9207500000
H                  2.2783660000     -1.1533970000     -2.1000510000
H                  1.8211540000     -2.4221820000     -0.9750220000
H                  3.9866130000      0.7080500000      0.9738120000
H                  4.3198230000      0.4158350000     -0.7217320000
H                  4.9817970000     -1.2943670000      1.6928210000
H                  5.9985110000     -0.8655660000      0.3307270000
H                  3.9946310000     -3.1097070000      0.6011990000
H                  3.8056670000     -3.2515800000     -1.9359410000
H                  4.5794840000     -1.6839490000     -2.0251040000
H                  6.6517190000     -2.8972090000     -0.8601470000
H                  5.2423170000     -4.7195160000     -1.7926070000
H                  4.9440760000     -5.3374810000     -0.1762620000
H                  5.9766090000     -4.0758630000      1.8762970000
H                  6.9342200000     -2.6316300000      1.5960870000
H                  8.3934050000     -4.5819820000      2.0628120000
H                  8.6871930000     -3.9409740000      0.4544840000
H                  7.0099220000     -6.4112400000      1.1296150000
H                  8.5797200000     -6.4099910000      0.3384910000
H                  6.6963300000     -6.6656280000     -1.3138050000
H                  7.6453990000     -5.2198670000     -1.6175110000





