%chk=312.chk
%nproc=8
%mem=30GB
#P UB3LYP/6-311++G(d,p) nosym opt freq

Oxidized

0 1
C                  3.7415690000      0.0288320000     -0.2365670000
C                  2.8021410000      0.1296780000      0.9808630000
C                  1.3535200000      0.3022750000      0.6004970000
C                  0.5802730000     -0.9454330000      0.3435970000
O                  1.1403570000     -2.0263640000      0.4651190000
C                 -0.8461190000     -0.8243060000     -0.0516860000
C                 -1.6428730000     -1.9444800000     -0.3034580000
O                 -1.1781980000     -3.2068640000     -0.2078310000
C                 -2.9971560000     -1.7649450000     -0.6758920000
O                 -3.7189310000     -2.8969440000     -0.9077690000
C                 -3.5519800000     -0.5085720000     -0.7961900000
O                 -4.8614550000     -0.4132220000     -1.1580480000
C                 -2.7669210000      0.6270690000     -0.5467770000
C                 -1.4238340000      0.4725900000     -0.1777520000
C                 -0.6454660000      1.6800910000      0.0719310000
C                  0.7767240000      1.5203290000      0.4598420000
O                  1.4009010000      2.7032520000      0.6501220000
O                 -1.1380030000      2.8125370000     -0.0326050000
O                 -3.3901730000      1.8125010000     -0.6867610000
H                  3.4730380000     -0.8330030000     -0.8499110000
H                  3.6894390000      0.9226420000     -0.8648290000
H                  4.7772370000     -0.0971170000      0.0896080000
H                  2.8879220000     -0.7855850000      1.5688570000
H                  3.1276190000      0.9475000000      1.6373100000
H                 -1.9009420000     -3.8130400000     -0.4235990000
H                  2.3130290000      2.5477780000      0.9220450000
H                 -2.7125130000      2.5101320000     -0.4777710000
H                 -4.6235030000     -2.6601320000     -1.1523520000
H                 -5.1015330000      0.5236580000     -1.1991200000


