%chk=015-an.chk
%nproc=8
%mem=30GB
#P UB3LYP/6-311++G(d,p) nosym opt freq

Reduced

-2 1
C                 -1.8103790000      0.3083630000     -1.0848730000
C                 -1.1687970000      0.1327230000      0.3138680000
C                 -1.8749650000     -1.0492840000      1.0067000000
C                 -1.4408580000      1.4023570000      1.1582770000
C                  0.3553020000     -0.0695580000      0.1616190000
C                  0.9755230000     -1.2277550000      0.6261480000
C                  2.3756260000     -1.5403020000      0.5484240000
O                  2.8717960000     -2.6366990000      1.0025690000
C                  3.1089700000     -0.4894870000     -0.0862770000
C                  2.5083240000      0.6917520000     -0.5651830000
Br                 3.5749080000      2.0877770000     -1.4220530000
C                  1.1126860000      0.9895350000     -0.4805550000
O                  0.5797320000      2.0821010000     -0.9259110000
Br                 5.0314150000     -0.8060730000     -0.2498280000
H                 -2.8881020000      0.5198350000     -0.9981190000
H                 -1.6881620000     -0.6089630000     -1.6726490000
H                 -1.3123500000      1.1317640000     -1.6012960000
H                 -1.7500450000     -1.9811250000      0.4464180000
H                 -2.9506320000     -0.8375930000      1.0799560000
H                 -1.4919970000     -1.2137910000      2.0186920000
H                 -1.0542090000      1.2676870000      2.1752460000
H                 -2.5218200000      1.6043910000      1.2255490000
H                 -0.9345540000      2.2512020000      0.6937550000
H                  0.3925890000     -2.0088570000      1.1038360000


