%chk=182-an.chk
%nproc=8
%mem=30GB
#P UB3LYP/6-311++G(d,p) nosym opt freq

Reduced

-2 1
C                  6.6726410000      0.5768660000      0.7367060000
C                  5.1915730000      0.4567720000      0.4604320000
C                  4.4640600000      1.4855120000     -0.1580840000
C                  3.1126930000      1.3638780000     -0.4444170000
C                  2.3791850000      0.1884310000     -0.1245230000
N                  1.0452250000      0.1749120000     -0.4171830000
C                  0.0941490000     -0.8534830000     -0.3393050000
C                  0.4207770000     -2.1914960000     -0.4439960000
C                 -0.5816550000     -3.1836500000     -0.3630660000
C                 -1.9073720000     -2.8471310000     -0.1692810000
O                 -2.8304560000     -3.8751390000     -0.0626540000
C                 -2.3316140000     -1.4866860000     -0.0935750000
C                 -3.7405030000     -1.1484360000      0.0845240000
O                 -4.6702420000     -1.9981290000      0.2165250000
C                 -4.0424280000      0.2821180000      0.0983020000
C                 -5.3832140000      0.6944260000      0.2650740000
C                 -5.7429600000      2.0285570000      0.2770170000
C                 -4.7406470000      3.0209100000      0.1156910000
C                 -3.4244050000      2.6486740000     -0.0515160000
C                 -3.0303220000      1.2821930000     -0.0633610000
C                 -1.6452600000      0.9450850000     -0.2390970000
O                 -0.7683530000      1.9055530000     -0.4238540000
C                 -1.3003630000     -0.4488310000     -0.2152400000
C                  3.1167220000     -0.8471330000      0.5081150000
C                  4.4731610000     -0.6999940000      0.7849890000
H                  7.2610740000     -0.1879640000      0.2076030000
H                  7.0598280000      1.5498950000      0.4166770000
H                  6.9086350000      0.4709170000      1.8024470000
H                  4.9740880000      2.4089810000     -0.4242220000
H                  2.5810280000      2.1826910000     -0.9181890000
H                  0.5205340000      1.1026170000     -0.4971190000
H                  1.4421150000     -2.4929440000     -0.6310310000
H                 -0.3038290000     -4.2344830000     -0.4444790000
H                 -2.3186800000     -4.6882500000     -0.1376900000
H                 -6.1198360000     -0.0937360000      0.3820960000
H                 -6.7835070000      2.3177150000      0.4078690000
H                 -5.0123500000      4.0748190000      0.1244210000
H                 -2.6383850000      3.3845280000     -0.1792330000
H                  2.6102710000     -1.7482510000      0.8222940000
H                  4.9886200000     -1.5203140000      1.2816030000


