%chk=053-PCM.chk
%nproc=8
%mem=30GB
#P UB3LYP/6-311++G(d,p) SCRF=(PCM,Solvent=n,n-DiMethylFormamide)

Quinone PCM in DMF 

0 1
C                  0.2648120000      1.4370410000     -0.8552090000
C                 -1.0133780000      0.6595150000     -0.8552600000
C                 -0.9691690000     -0.6901470000     -0.8552820000
C                  0.3435880000     -1.4028390000     -0.8552560000
C                  1.6217780000     -0.6253130000     -0.8551900000
C                  1.5775700000      0.7243490000     -0.8551640000
O                  0.2452630000      2.6601170000     -0.8551610000
O                  0.3631370000     -2.6259150000     -0.8552550000
C                  2.7887440000      1.6115740000     -0.8550980000
C                  2.8971190000     -1.4272510000     -0.8551550000
C                 -2.2887190000      1.4614520000     -0.8552840000
C                 -2.1803430000     -1.5773730000     -0.8553340000
H                  3.7144140000      1.0392270000     -0.8550060000
H                  2.7793770000      2.2700090000      0.0180530000
H                  2.7795180000      2.2699460000     -1.7283000000
H                  2.6693430000     -2.4915690000     -0.8551840000
H                  3.5045500000     -1.2034240000      0.0264330000
H                  3.5046190000     -1.2033900000     -1.7366880000
H                 -2.0609430000      2.5257710000     -0.8552520000
H                 -2.8962140000      1.2375890000      0.0262510000
H                 -2.8961550000      1.2376290000     -1.7368700000
H                 -3.1060140000     -1.0050250000     -0.8553200000
H                 -2.1710560000     -2.2358160000      0.0178120000
H                 -2.1710380000     -2.2357370000     -1.7285410000





