%chk=026.chk
%nproc=8
%mem=30GB
#P UB3LYP/6-311++G(d,p) nosym opt freq

Oxidized

0 1
Cl   -2.7449599386   -1.7392613623   -0.0131651200
C    -1.2696231755   -0.7629773681   -0.0070055323
C    -1.3330346902    0.5610465127   -0.0373918485
C    -0.1501275679    1.4159431181   -0.0340406813
O    -0.2333684539    2.6826017393   -0.0635349371
C     1.1648586407    0.7925250161    0.0043874937
C     1.2365085542   -0.5221150740    0.0347220436
Cl    2.8381867777   -1.2553853725    0.0809489996
C     0.0480274653   -1.3686053465    0.0310799763
O     0.1314545670   -2.6261667611    0.0603743248
Cl    2.6221191398    1.7984762594    0.0095557334
H    -2.3100413187    1.0239186390   -0.0659304521


