%chk=186-rad.chk
%nproc=8
%mem=30GB
#P UB3LYP/6-311++G(d,p) nosym opt freq

Radical

-1 2
O     3.1140563884   -2.2046611269    0.2139958651
C     2.7382632463   -0.8904432653    0.2510161713
C     3.7225789952    0.0999200446    0.4118357604
C     3.4505202265    1.4388711199    0.4611741233
C     2.1571007034    1.8857495333    0.3515242221
C     1.1451489357    0.9432511011    0.1905901514
C    -0.2308258865    1.4296886332    0.0745813495
O    -0.4830579575    2.6636384717    0.1198918639
C    -1.3010342825    0.4525710256   -0.0944772214
C    -2.6332150507    0.8386894968   -0.2117254281
O    -2.8664690950    2.2212037919   -0.1557828397
C    -3.6596751819   -0.0573586052   -0.3714805004
C    -3.3860427298   -1.4063890309   -0.4212403227
C    -2.0730914814   -1.8104158554   -0.3070494404
C    -1.0424257540   -0.9030391673   -0.1461949973
C     0.3539227697   -1.3610662496   -0.0263971706
O     0.5474029370   -2.5879820720   -0.0774600364
C     1.4462894910   -0.4154190603    0.1431543923
H     2.6787611876   -3.0499186043    0.1191893391
H     4.7405199248   -0.2349669367    0.4991110710
H     4.2417318803    2.1865104721    0.5876232341
H     1.9159807200    2.9260651577    0.3867363336
H    -3.8243297140    2.5365225917   -0.2379003527
H    -4.6803146317    0.3031603349   -0.4575470108
H    -4.1934210631   -2.1302133359   -0.5480048445
H    -1.8783745779   -2.8739684647   -0.3484826629


