%chk=318.chk
%nproc=8
%mem=30GB
#P UB3LYP/6-311++G(d,p) nosym opt freq

Oxidized

0 1
Br   -2.3041500992    2.0682198431    0.7940018453
C    -0.9561425380    0.7827868631    0.3206337055
C    -1.3241200527   -0.4781439638    0.2609002109
Br   -3.0797501245   -1.0992717342    0.6083321781
C    -0.3100010182   -1.4894813310   -0.1004016675
O    -0.6228988566   -2.7038181082   -0.1678635268
C     1.0505786887   -1.0462875174   -0.3741228686
O     1.9551555269   -1.8698931139   -0.6872043092
C     1.3120791904    0.3894240440   -0.2684116828
C     0.3754382530    1.2650341921    0.0584320322
Br    0.8198125285    3.1305487675    0.1707039355
Br    3.0839985016    1.0508820586   -0.6149998528


