%chk=135-rad.chk
%nproc=8
%mem=30GB
#P UB3LYP/6-311++G(d,p) nosym opt freq

Radical

-1 2
C          5.60523       -4.61291       -1.02834
C          6.48990       -4.07778       -1.99917
C          6.20209       -2.82702       -2.59452
C          4.43101       -3.89019       -0.65619
C          4.16834       -2.64025       -1.26888
C          5.05402       -2.12657       -2.22669
C          3.45335       -4.40002        0.36449
C          2.24426       -3.61176        0.71938
C          2.00201       -2.37207        0.09872
C          2.95565       -1.85672       -0.90832
C          1.33002       -4.09396        1.67720
C          0.19449       -3.35272        2.00987
C         -0.04357       -2.12494        1.39385
C          0.85312       -1.63438        0.44315
C          7.66335       -4.75848       -2.39770
C          8.51719       -4.20794       -3.35650
C          8.22190       -2.97537       -3.93490
C          7.07041       -2.28573       -3.55769
O          3.63340       -5.47154        0.92184
O          2.74224       -0.77855       -1.44614
Cl         5.99010       -6.18375       -0.29727
H          4.84906       -1.16939       -2.69317
H          1.49184       -5.04442        2.17004
H         -0.50201       -3.73142        2.74681
H         -0.92447       -1.55189        1.65317
H          0.64754       -0.67844       -0.02212
H          7.93715       -5.71672       -1.97947
H          9.41215       -4.74048       -3.65190
H          8.88682       -2.55319       -4.67737
H          6.85811       -1.32835       -4.01908








