%chk=261-an.chk
%nproc=8
%mem=30GB
#P UB3LYP/6-311++G(d,p) nosym opt freq

Reduced

-2 1
C     2.8915739948    2.5519824401   -0.3494544140
O     2.5360829558    1.1931344616   -0.2404068744
C     1.2183481191    0.7823153575   -0.1632115061
C     0.2347598208    1.7441628366   -0.1952519726
C    -1.1037431325    1.3687883008   -0.1198000976
C    -1.4124550963    0.0279451150   -0.0137396271
O    -2.7350590360   -0.3794811155    0.0634012300
C    -3.7740049207    0.5871010099    0.0330407251
C    -0.4267482619   -0.9469936086    0.0191512507
C    -0.8158022804   -2.3448919697    0.1321937847
O    -2.0414801892   -2.6717277357    0.2000958878
C     0.2341648238   -3.3591321379    0.1655179306
C     1.5097242267   -3.0198692418    0.0949110474
C     1.9067298800   -1.5994443514   -0.0200099952
O     3.1204838355   -1.2765910522   -0.0871976837
C     0.8935787649   -0.5511613667   -0.0570835272
H     3.9844681782    2.5656263347   -0.6125958360
H     2.7354025002    3.0549457259    0.6433473676
H     2.2830840685    3.0323015920   -1.1425870616
H     0.4473960165    2.8065358034   -0.2781169948
H    -1.8764847716    2.1216930076   -0.1447825967
H    -4.7584352980    0.0852608139   -0.0588472222
H    -3.6906414664    1.2126483649    0.9416285570
H    -3.5691608306    1.2202142149   -0.8770986958
H    -0.0731669073   -4.4118485594    0.2511716153
H     2.2813850061   -3.7935142402    0.1214022403


