%chk=203-rad.chk
%nproc=8
%mem=30GB
#P UB3LYP/6-311++G(d,p) nosym opt freq

Radical

-1 2
C     4.6644501578    1.2285867059   -0.5111680916
C     3.3495349538    0.5890418563   -0.2192999513
C     3.2949056383   -0.6432147906    0.4001440926
C     2.0778362567   -1.2380265921    0.6717423364
O     1.9889225415   -2.4818745166    1.2962417540
C     0.8725691072   -0.6376970405    0.3416035475
C    -0.4083349945   -1.2668499009    0.6290235417
O    -0.4346575401   -2.3876391043    1.1929749807
C    -1.6594699836   -0.6133589919    0.2710367129
C    -2.8709518028   -1.2309120813    0.5541843634
O    -2.8680674463   -2.4845796580    1.1857474106
C    -4.0560026012   -0.6056733240    0.2119238253
C    -4.0444162363    0.6172430212   -0.4038125385
O    -5.2329432774    1.2606290400   -0.7552917918
C    -2.8371737904    1.2202278944   -0.6797182642
C    -1.6346901489    0.6301609874   -0.3547741697
C    -0.3459286952    1.2272611400   -0.6258643829
O    -0.3430603180    2.3655490801   -1.1991671303
C     0.9283109203    0.6045817772   -0.2828663420
C     2.1498111392    1.1843853315   -0.5467997069
H     5.4474586033    0.8815790121    0.1814765633
H     4.6130560051    2.3366845968   -0.4080988824
H     4.9665903851    1.0158576876   -1.5674050065
H     4.2141990805   -1.1218555019    0.6624064472
H     2.8401513964   -2.9363407052    1.5447405481
H    -3.7551663356   -2.9123148775    1.3807365905
H    -5.0076089957   -1.0912187230    0.4345710683
H    -5.2494766232    2.1548044255   -1.2060836478
H    -2.8473038507    2.1846665738   -1.1657499225
H     2.1874564547    2.1502966781   -1.0324539539


