%chk=005-an.chk
%nproc=8
%mem=30GB
#P UB3LYP/6-311++G(d,p) nosym opt freq

Reduced

-2 1
C     2.2632273657   -0.0237850783    0.0955794478
C     0.7865175762    0.0204822501    0.0398186768
C     0.2007056155    1.2024205831    0.1858862678
C    -1.2524765268    1.3030626313    0.1392623481
O    -1.8310176623    2.4006492618    0.2734469641
C    -2.0691301356    0.0953882658   -0.0695468675
C    -1.5060244960   -1.0941097627   -0.2176616418
Br   -2.5909544259   -2.6402671803   -0.4866381292
C    -0.0535015050   -1.1477192230   -0.1642736073
O     0.5308506618   -2.2546067597   -0.2995657601
H     2.5916266229    0.1784772382    1.1289935685
H     2.7341029801    0.7398750173   -0.5713678483
H     2.5727574583   -1.0166620501   -0.2844756425
H     0.7716501283    2.1005807654    0.3396091939
H    -3.1483336572    0.1362140412   -0.1090669703


