%chk=081.chk
%nproc=8
%mem=30GB
#P UB3LYP/6-311++G(d,p) nosym opt freq

Oxidized

0 1
C          1.36401        1.25554       -2.96809
C          0.04626        1.67099       -3.47746
C         -1.04023        0.92874       -3.26738
C         -0.97277       -0.34108       -2.52423
C          0.35264       -0.78807       -2.00772
O          2.33624        1.97513       -3.15908
O         -1.99381       -0.99744       -2.35927
H          0.00843        2.60894       -4.01897
C          1.44577       -0.02985       -2.22711
C          2.75742       -0.45965       -1.66545
C          3.91256       -0.54690       -2.59841
C          5.17055       -0.02270       -2.24432
C          3.74013       -1.20262       -3.82892
C          6.23922       -0.17327       -3.14260
C          6.05972       -0.81845       -4.36748
C          4.81250       -1.33234       -4.71105
O          2.87924       -0.74549       -0.47887
C          5.40761        0.67929       -0.93606
H          2.78378       -1.63730       -4.10600
H          7.22392        0.21786       -2.89332
H          6.89831       -0.92209       -5.05199
H          4.67936       -1.84178       -5.66217
C          0.31814       -2.11222       -1.29361
H         -2.01802        1.22405       -3.63013
H         -0.13651       -1.99600       -0.30453
H          1.30657       -2.56122       -1.16627
H         -0.27016       -2.84232       -1.86079
H          4.61953        1.41351       -0.73996
H          6.35563        1.22816       -0.94630
H          5.44809       -0.04652       -0.11817









