%chk=143.chk
%nproc=8
%mem=30GB
#P UB3LYP/6-311++G(d,p) nosym opt freq

Oxidized

0 1
C     4.2749958242    1.6363481427    0.3589615991
C     3.2786340077    0.5329713545    0.5848059873
O     3.0019468569    0.1289355952    1.7444209812
O     2.6557074346   -0.0469021592   -0.5093856101
C     1.7256838180   -1.0676101867   -0.4016805439
C     2.0799629108   -2.3970813078   -0.4138850912
C     1.1305648201   -3.4106094838   -0.3044054498
C    -0.1949152043   -3.0555943469   -0.1812530858
C    -0.5852383121   -1.7459509018   -0.1652064022
C    -2.0020402140   -1.3722104302   -0.0334633723
O    -2.8780825648   -2.2804320321    0.0671054624
C    -2.4049915911    0.0263124531   -0.0176705759
C    -3.7248629898    0.4124768788    0.1044204392
C    -4.1018954773    1.7418226024    0.1188516231
C    -3.1452667586    2.7427851501    0.0088792642
C    -1.8290489797    2.3600701094   -0.1129120269
C    -1.4507453426    1.0255116398   -0.1273802680
C    -0.0519935206    0.6240905098   -0.2569022074
O     0.8118683331    1.5434801360   -0.3564672314
C     0.3900347529   -0.7553528888   -0.2768237906
H     4.5849394570    1.6167699077   -0.7078999907
H     5.1878735720    1.4746684133    0.9979402670
H     3.8126484042    2.6162819460    0.5717701790
H     3.1201546940   -2.6927117052   -0.5102454456
H     1.4561509419   -4.4618455908   -0.3184932540
H    -0.9561747852   -3.8132846154   -0.0944043489
H    -4.4968143072   -0.3555446895    0.1924751180
H    -5.1383481307    2.0505329318    0.2146461336
H    -3.4666039014    3.7832025680    0.0227229746
H    -1.0841437479    3.1388699994   -0.1985213337


