%chk=288.chk
%nproc=8
%mem=30GB
#P UB3LYP/6-311++G(d,p) nosym opt freq SCRF=(PCM,Solvent=n,n-DiMethylFormamide)

Oxidized

0 1
C                 -2.0354440000      3.0102280000      0.5322580000
C                 -2.7647160000      2.3199090000      1.4954690000
C                 -2.3086120000      1.0867450000      1.9648750000
C                 -0.8479520000      2.4638110000      0.0395770000
C                 -0.3865980000      1.2233060000      0.5096540000
C                 -1.1244690000      0.5394640000      1.4742480000
C                 -0.0641050000      3.1822750000     -0.9814950000
C                  1.1984350000      2.5571580000     -1.4701710000
C                  1.6589580000      1.3568770000     -1.0393730000
C                  0.8888770000      0.6237360000     -0.0127620000
O                 -0.3854740000      4.2658560000     -1.4565850000
O                  1.2747290000     -0.4577260000      0.4088550000
H                 -2.3689900000      3.9681250000      0.1523100000
H                 -3.6864120000      2.7403950000      1.8806600000
H                 -2.8781760000      0.5505150000      2.7154610000
H                 -0.7566030000     -0.4159150000      1.8272730000
C                  2.9417390000      0.7570500000     -1.5424070000
O                  1.8469380000      3.2884440000     -2.3913400000
H                  3.1161240000      1.0930480000     -2.5677970000
H                  2.8348080000     -0.3304370000     -1.5531530000
H                  1.3040050000      4.0872030000     -2.5330920000
C                  4.1592780000      1.1313140000     -0.6698780000
C                  5.4626720000      0.5109590000     -1.1833080000
C                  6.6848360000      0.8766210000     -0.3334930000
H                  3.9760080000      0.8012310000      0.3581380000
H                  4.2583480000      2.2223490000     -0.6411750000
H                  5.6328940000      0.8311430000     -2.2193560000
H                  5.3553430000     -0.5807240000     -1.2139130000
H                  6.5137690000      0.5558790000      0.7021290000
H                  6.7885600000      1.9689180000     -0.3003500000
C                  7.9925330000      0.2606030000     -0.8438230000
C                  9.2155200000      0.6263510000      0.0048460000
C                 10.5236990000      0.0102750000     -0.5039720000
C                 11.7468940000      0.3773750000      0.3439100000
C                 13.0552720000     -0.2384250000     -0.1641650000
C                 14.2791950000      0.1290010000      0.6825800000
C                 15.5814120000     -0.4907310000      0.1671070000
H                  8.1627210000      0.5804480000     -1.8800770000
H                  7.8887320000     -0.8316870000     -0.8767450000
H                  9.0447330000      0.3071560000      1.0411980000
H                  9.3191620000      1.7187660000      0.0375090000
H                 10.6939470000      0.3285350000     -1.5407360000
H                 10.4204490000     -1.0821690000     -0.5356190000
H                 11.5765700000      0.0593390000      1.3807510000
H                 11.8500920000      1.4698940000      0.3753590000
H                 13.2264060000      0.0788690000     -1.2012610000
H                 12.9535000000     -1.3312160000     -0.1950420000
H                 14.1090740000     -0.1885070000      1.7186470000
H                 14.3816780000      1.2206860000      0.7130820000
H                 15.5228100000     -1.5838180000      0.1580260000
H                 16.4336100000     -0.2095660000      0.7922320000
H                 15.7975210000     -0.1639480000     -0.8550850000


