%chk=292-an.chk
%nproc=8
%mem=30GB
#P UB3LYP/6-311++G(d,p) nosym opt freq SCF=YQC

Reduced

-2 1
 C                  0.42509800    1.86055300   -1.30134800
 C                 -0.66497800    1.27698300   -1.91665800
 C                 -0.72678600   -0.13042800   -2.06274500
 C                  1.49920200    1.08041200   -0.80390500
 C                  1.43757100   -0.35186500   -0.95292200
 C                  0.31261900   -0.91332700   -1.58486600
 C                  2.62528500    1.69755600   -0.16383000
 C                  3.64713300    0.80890200    0.29736500
 C                  3.62262200   -0.57607400    0.17655100
 C                  2.50989200   -1.22822900   -0.46361900
 O                  2.79160900    2.96803600    0.03132800
 O                  2.45479400   -2.49446600   -0.59478200
 O                  4.69476400    1.46375100    0.90211100
 H                  0.49381000    2.93670800   -1.17908100
 H                 -1.47621600    1.89791500   -2.29060500
 H                 -1.58327900   -0.59198800   -2.54784600
 H                  0.29587500   -1.99405400   -1.68328200
 H                  4.38152900    2.39821900    0.81777200
 C                  4.74087800   -1.42716400    0.71945000
 C                  5.78333500   -1.81594600   -0.35128000
 C                  6.84580400   -2.82841700    0.14450800
 C                  7.72544900   -3.33056900   -0.98918200
 C                  8.66776900   -2.50209500   -1.61719300
 C                  7.61653200   -4.64729300   -1.45254900
 C                  9.47724000   -2.96929600   -2.64982400
 C                  9.35643600   -4.29019500   -3.07410100
 C                  8.42083700   -5.13122400   -2.48458900
 H                  4.30110400   -2.35246700    1.11234300
 H                  5.23106100   -0.89680000    1.54090300
 H                  6.28236000   -0.91061600   -0.71855500
 H                  5.24692600   -2.25573900   -1.19681600
 H                  6.29769000   -3.69849000    0.52754500
 C                  7.69409600   -2.27130000    1.30499700
 H                  8.76597000   -1.46931200   -1.30165200
 H                  6.88129100   -5.30536200   -1.00049700
 H                  8.32568300   -6.15131600   -2.83913900
 O                 10.10616900   -4.75124100   -4.15562700
 C                 11.39514400   -5.19861700   -3.96267400
 C                 12.00371800   -5.30779500   -2.71153900
 C                 12.09070500   -5.56960900   -5.11800000
 C                 13.39129800   -6.04954600   -5.01766900
 C                 13.31244400   -5.78851100   -2.62875800
 C                 14.01200500   -6.16127200   -3.77238900
 H                 10.19786900   -2.31842900   -3.13228200
 H                  7.06382800   -2.03526800    2.16468800
 H                  8.20690400   -1.34877600    1.01477300
 H                  8.45248700   -2.99446900    1.62307300
 H                 11.46426300   -5.02220300   -1.81729300
 H                 11.59613600   -5.47598600   -6.07888300
 H                 13.92752100   -6.33788800   -5.91859600
 H                 13.78562500   -5.87191900   -1.65405000
 H                 15.02920200   -6.53492600   -3.69867600

















