%chk=157-rad-PCM.chk
%nproc=8
%mem=30GB
#P UB3LYP/6-311++G(d,p) SCRF=(PCM,Solvent=n,n-DiMethylFormamide)

Reduced 

-1 2
 C                 -1.68833200    1.97016900   -5.16241200
 C                 -1.62030600    0.65047200   -5.55712400
 C                 -1.31688100   -0.35705400   -4.61727500
 C                 -1.45652600    2.33764400   -3.81530900
 C                 -1.15049000    1.32012600   -2.86764100
 C                 -1.08734700   -0.01955600   -3.29733900
 C                 -1.53403700    3.72828400   -3.42944000
 C                 -0.89868100    1.63002800   -1.45289500
 C                 -1.28765300    4.05213800   -2.03597500
 C                 -0.97974000    3.04716500   -1.07145600
 C                 -1.34170900    5.38392400   -1.56919000
 C                 -1.11503200    5.73723700   -0.25760100
 C                 -0.81321300    4.73687900    0.67977200
 C                 -0.74974600    3.41781100    0.26655100
 O                 -1.81208900    4.64642700   -4.29220700
 O                 -0.63090300    0.74165800   -0.62209700
 N                 -1.65724900    6.44476800   -2.54071500
 H                 -1.91972500    2.75855100   -5.86804600
 H                 -1.80071200    0.38534100   -6.59414700
 H                 -1.26434700   -1.39420100   -4.93212000
 H                 -0.85231000   -0.77169300   -2.55350000
 S                 -1.22778400    7.50951200    0.15963300
 H                 -0.63662500    5.02501500    1.70862100
 H                 -1.78898500    5.90284800   -3.48622800
 H                 -2.48015500    6.96399800   -2.20218200
 H                 -0.51892400    2.62438000    0.96746000
 O                 -2.61967500    7.85381900   -0.26385500
 O                 -0.94943900    7.62644000    1.59811800
 O                 -0.21266100    8.12171500   -0.75136800
 H                 -0.89731200    7.14015300   -2.52388700



































