%chk=088.chk
%nproc=8
%mem=30GB
#P UB3LYP/6-311++G(d,p) nosym opt freq SCRF=(PCM,Solvent=n,n-DiMethylFormamide)

Oxidized

0 1
C                  1.7656180000      1.2968070000     -0.4885340000
C                  0.4688920000      1.6460580000      0.1840840000
C                 -0.4903510000      0.7202520000      0.3561470000
C                 -0.3190090000     -0.6826890000     -0.1678730000
C                  0.9798980000     -1.0521030000     -0.7793220000
C                  1.9619350000     -0.1250540000     -0.9469690000
O                  2.6377120000      2.1172600000     -0.6458460000
O                 -1.2302450000     -1.4843340000     -0.1067640000
O                  3.1561630000     -0.2691670000     -1.5197670000
C                  3.7548850000     -1.5538600000     -1.7593270000
Br                 0.3264140000      3.4373130000      0.7607510000
Br                -2.1372220000      1.0574730000      1.2123300000
H                  3.2210790000     -2.1005320000     -2.5338470000
H                  3.7834430000     -2.1406370000     -0.8383820000
H                  4.7688190000     -1.3234840000     -2.0811300000
O                  1.0872520000     -2.2964710000     -1.3191810000
C                  0.9817970000     -3.4298320000     -0.4351280000
H                  0.0063530000     -3.4613980000      0.0469630000
H                  1.7795200000     -3.3977170000      0.3146790000
H                  1.1108170000     -4.3047930000     -1.0702250000


