%chk=003-rad-PCM.chk
%nproc=8
%mem=30GB
#P UB3LYP/6-311++G(d,p) SCRF=(PCM,Solvent=n,n-DiMethylFormamide)

Radical PCM in DMF 

-1 2
Cl                 3.1035050000     -0.1642730000      0.0315950000
C                  1.3296980000     -0.0670540000      0.0135600000
C                  0.7337260000      1.1633320000      0.0115730000
C                 -0.7083690000      1.3150440000     -0.0028640000
O                 -1.2638440000      2.4495210000     -0.0047560000
C                 -1.4566820000      0.0743210000     -0.0148500000
C                 -0.8430100000     -1.1476340000     -0.0126450000
C                  0.5978160000     -1.3260750000      0.0016850000
O                  1.1417250000     -2.4589500000      0.0034680000
H                  1.3274710000      2.0701250000      0.0208150000
H                 -2.5399580000      0.1583170000     -0.0258010000
H                 -1.4220790000     -2.0666720000     -0.0217810000





