%chk=296-rad.chk
%nproc=8
%mem=30GB
#P UB3LYP/6-311++G(d,p) nosym  opt freq

Radical

-1 2
C                 -1.62154000    3.38946400   -0.33645400
 C                 -2.61936500    3.43727500    0.61902500
 C                 -2.62613700    2.50788300    1.67877900
 C                 -0.60078500    2.41660200   -0.26688600
 C                 -0.60526400    1.47705000    0.80213300
 C                 -1.63131500    1.54709200    1.76087100
 C                  0.44439300    2.36503800   -1.26480900
 C                  1.44685600    1.33590000   -1.10923200
 C                  1.47673200    0.40567700   -0.08855000
 C                  0.43876100    0.43658900    0.92614400
 O                  0.54706600    3.15342500   -2.26178800
 O                  0.41032700   -0.38082600    1.88282900
 O                  2.39277800    1.36346000   -2.09464600
 C                  2.55659800   -0.64917800    0.02682600
 C                  2.56865000   -1.64495400   -1.16776400
 C                  3.97219300   -0.07438200    0.23129900
 C                  4.97543500   -1.18539100    0.61462200
 C                  4.67844500   -2.55738300   -0.05552900
 C                  3.94806000   -2.30553500   -1.38655000
 C                  5.95495400   -3.42601200   -0.18760900
 C                  5.68323000   -4.81464500   -0.80307200
 C                  6.67379800   -3.60632300    1.16662200
 C                  7.94418600   -4.46280100    1.06189200
 C                  7.65666300   -5.83326800    0.43737300
 C                  6.94990000   -5.67696800   -0.91429200
 H                 -1.59419700    4.09297300   -1.16091900
 H                 -3.39886900    4.19095700    0.55401200
 H                 -3.41022600    2.54596200    2.42912000
 H                 -1.61204800    0.82031900    2.56492100
 H                  2.08644200    2.12071700   -2.64405900
 H                  2.30334600   -1.20822100    0.93211400
 H                  2.27460800   -1.12988100   -2.08438700
 H                  1.81592900   -2.41918500   -0.98045500
 H                  3.95087800    0.68644000    1.01718500
 H                  4.29123200    0.43413000   -0.68235100
 H                  4.97881200   -1.30905400    1.70243500
 H                  5.98829500   -0.86280800    0.33733000
 H                  3.98488200   -3.10959700    0.59569000
 H                  3.81107900   -3.23241700   -1.95019800
 H                  4.57584500   -1.65682100   -2.01153500
 H                  6.64524400   -2.89256300   -0.86148900
 H                  5.23335700   -4.71181500   -1.79327000
 H                  4.94387200   -5.33695900   -0.17939000
 H                  5.97625100   -4.08046300    1.87182200
 H                  6.92737300   -2.63295400    1.59306600
 H                  8.39731800   -4.58354700    2.05271700
 H                  8.68427100   -3.93533300    0.44478500
 H                  7.01445100   -6.41108000    1.11565700
 H                  8.58442300   -6.40576400    0.32162300
 H                  6.69753400   -6.66036500   -1.32770700
 H                  7.64136500   -5.20906900   -1.62819500


