%chk=302-rad.chk
%nproc=8
%mem=30GB
#P UB3LYP/6-311++G(d,p) nosym opt freq

Radical

-1 2
 C                 -1.89692900    4.46874500    5.30672000
 C                 -3.18873900    3.97030900    5.37486600
 C                 -3.66952700    3.11686000    4.35792400
 C                 -1.04872600    4.12835700    4.22816800
 C                 -1.52890900    3.26637300    3.20134700
 C                 -2.84748300    2.77809500    3.29017000
 C                  0.29725800    4.65192600    4.14209300
 C                  1.09125900    4.22382300    3.01196900
 C                  0.68249200    3.34322700    2.01617600
 C                 -0.69111700    2.87673000    2.03863000
 O                  0.83017600    5.46025300    4.97850200
 O                 -1.21080400    2.17370500    1.12061500
 O                  2.33559700    4.77738300    2.98998000
 H                 -1.50444200    5.13086500    6.07375000
 H                 -3.83309600    4.23791900    6.21096600
 H                 -4.68416200    2.72545200    4.41016300
 H                 -3.19605400    2.12779700    2.49313300
 H                  2.32961100    5.33966300    3.80524000
 C                  2.98781700    2.39901100    1.34376200
 C                  3.06021900    1.57245300    2.47025800
 C                  4.14986500    2.58493300    0.58124800
 C                  5.35101600    1.96413700    0.93067300
 C                  5.41087100    1.13876800    2.05900900
 C                  4.25909300    0.94722500    2.82699500
 H                  2.17168100    1.42908500    3.07914300
 H                  4.10309600    3.22302300   -0.29877300
 H                  6.24148000    2.12800800    0.32624100
 H                  4.29251400    0.31339300    3.71109700
 H                  6.34562500    0.65692900    2.33918000
 C                  1.68755800    3.06749400    0.88102600
 H                  1.99008900    4.06129600    0.51818500
 N                  1.18213800    2.36304600   -0.32497300
 C                  1.10109600    0.89833900   -0.23889400
 C                  0.38481200    0.34356100   -1.47257700
 C                  0.31420900   -1.18921000   -1.48612600
 C                 -0.40668500   -1.75904600   -2.71585200
 C                 -0.48181600   -3.29225900   -2.73250600
 C                 -1.20418500   -3.86225000   -3.96130800
 C                 -1.28161400   -5.39531500   -3.97679100
 C                 -2.00320500   -5.96461300   -5.20633800
 C                 -2.08014400   -7.49771300   -5.22150600
 C                 -2.80097700   -8.06725700   -6.45117300
 C                 -2.87835600   -9.60020600   -6.46661000
 C                 -3.59982700  -10.15978900   -7.69885200
 H                  0.22301500    2.68480200   -0.45224400
 H                  0.56393800    0.56279500    0.66211900
 H                  2.11928300    0.49249100   -0.19686400
 H                  0.90021000    0.70260800   -2.37593800
 H                 -0.63526800    0.75311000   -1.50110600
 H                 -0.19690000   -1.53571600   -0.57552000
 H                  1.33395900   -1.60320300   -1.44229200
 H                  0.10228100   -1.41175200   -3.62865100
 H                 -1.42609800   -1.34612200   -2.75966000
 H                 -0.99090800   -3.63908700   -1.82015500
 H                  0.53766400   -3.70606100   -2.68773700
 H                 -0.69476200   -3.51636800   -4.87417000
 H                 -2.22314600   -3.44794700   -4.00651200
 H                 -1.79214100   -5.74128600   -3.06489700
 H                 -0.26281300   -5.81022300   -3.93064800
 H                 -1.49293400   -5.61866800   -6.11852700
 H                 -3.02213800   -5.55042300   -5.25240500
 H                 -2.59100700   -7.84374000   -4.30981100
 H                 -1.06124200   -7.91214800   -5.17493000
 H                 -2.29048100   -7.72226000   -7.36370400
 H                 -3.82027400   -7.65373900   -6.49850100
 H                 -3.38947700   -9.94567600   -5.55593000
 H                 -1.86029700  -10.01426300   -6.42006700
 H                 -4.63252900   -9.79133300   -7.75461600
 H                 -3.63793900  -11.25611100   -7.67920400
 H                 -3.09219700   -9.86042700   -8.62520000










