%chk=009-an.chk
%nproc=8
%mem=30GB
#P UB3LYP/6-311++G(d,p) nosym opt freq SCRF=(PCM,Solvent=n,n-DiMethylFormamide)

Reduced

-2 1
Cl                 2.3135120000     -2.0483560000      0.0546180000
C                  0.9415240000     -0.8886630000      0.0233380000
C                  1.1931240000      0.5019370000      0.0003960000
Cl                 2.8854490000      1.1079280000      0.0026180000
C                  0.1716920000      1.5075400000     -0.0254740000
O                  0.3778530000      2.7826350000     -0.0469680000
C                 -1.1329560000      0.9121360000     -0.0251590000
C                 -1.3810040000     -0.4569800000     -0.0025720000
C                 -0.3681100000     -1.4719520000      0.0236930000
O                 -0.6223910000     -2.7383180000      0.0441220000
H                 -1.9692810000      1.6114630000     -0.0443580000
H                 -2.4094130000     -0.8193690000     -0.0042540000


