%chk=095-rad.chk
%nproc=8
%mem=30GB
#P UB3LYP/6-311++G(d,p) nosym  opt freq

Radical

-1 2
C          2.12117        3.87695        5.42731
C          3.06217        3.25910        4.47275
C          2.66966        2.30998        3.62052
C          1.27356        1.84392        3.59739
C          0.33152        2.46534        4.54861
C          0.70246        3.41951        5.41678
O          2.51345        4.73340        6.21290
O          0.90608        0.98065        2.81251
C         -0.19540        4.11975        6.40788
C         -1.67043        3.72908        6.37228
O          0.27539        3.84818        7.72790
H          4.08563        3.61344        4.50627
H          3.34940        1.84501        2.91688
H         -0.68204        2.08598        4.48895
H         -0.13706        5.20361        6.24717
H         -2.11969        3.93313        5.39526
H         -2.22764        4.29280        7.12928
H         -1.80945        2.66952        6.61574
H          1.14298        4.29584        7.80263









