%chk=245-an.chk
%nproc=8
%mem=30GB
#P UB3LYP/6-311++G(d,p) nosym opt freq

Reduced

-2 1
C          5.72020       -5.35875        1.28761
C          6.68432       -5.22282        0.28333
C          6.59341       -4.20157       -0.65398
C          4.63821       -4.44251        1.33130
C          4.53671       -3.40585        0.36700
C          5.53784       -3.27342       -0.62834
C          3.60075       -4.56704        2.39844
C          2.50448       -3.59148        2.43335
C          2.39743       -2.62896        1.52327
C          3.36192       -2.48375        0.42288
O          3.61034       -5.43842        3.26041
O          3.13303       -1.60871       -0.40334
C          5.89842       -6.49004        2.26760
H          7.52236       -5.91564        0.22194
H          1.58129       -1.91545        1.54530
C          5.58574       -2.23569       -1.72123
H          7.36404       -4.12980       -1.42175
H          6.79811       -7.07540        2.04603
H          5.05236       -7.18225        2.21465
H          6.01708       -6.10328        3.28447
H          1.78315       -3.70256        3.23488
H          4.91579       -1.38967       -1.59636
H          5.36975       -2.70687       -2.68619
H          6.59152       -1.80014       -1.76573







