%chk=299-an-PCM.chk
%nproc=8
%mem=30GB
#P UB3LYP/6-311++G(d,p) SCRF=(PCM,Solvent=n,n-DiMethylFormamide)

Reduced 

-2 1
C                 -6.7950370000      5.9456690000      0.8308990000
C                 -7.9120020000      5.2119540000      0.4802550000
C                 -7.7966360000      4.1447430000     -0.4415090000
C                 -6.5585670000      3.8417120000     -0.9871500000
C                 -5.4027060000      4.5690000000     -0.6512590000
C                 -5.5214710000      5.6541010000      0.2847630000
C                 -4.3656910000      6.4242750000      0.6546030000
C                 -3.1269950000      6.0397020000      0.0390000000
C                 -2.9734960000      5.0049200000     -0.8718970000
C                 -4.1124320000      4.2077590000     -1.2587670000
O                 -4.3499220000      7.4165450000      1.4784510000
O                 -4.0122700000      3.2475270000     -2.0836560000
C                 -1.6305410000      4.6859180000     -1.4770680000
C                 -0.8680700000      3.5659100000     -0.7409040000
C                  0.4789220000      3.2291500000     -1.3917360000
C                  1.2647900000      2.1235530000     -0.6752810000
C                  2.6110350000      1.7977810000     -1.3346300000
C                  3.4096720000      0.6968300000     -0.6251860000
C                  4.7523550000      0.3832340000     -1.2968480000
C                  5.5628640000     -0.7136330000     -0.5941520000
C                  6.9019080000     -1.0106060000     -1.2850390000
C                  7.7111840000     -2.0991870000     -0.5808870000
S                  9.3045570000     -2.3887770000     -1.4864950000
C                 10.0719760000     -3.6756230000     -0.5010540000
C                  9.9199550000     -5.0254990000     -0.8479060000
C                 10.8857370000     -3.3528460000      0.5941760000
C                 11.4791330000     -4.3600020000      1.3526090000
C                 11.2948420000     -5.7126630000      1.0433350000
C                 10.5218650000     -6.0229020000     -0.0889930000
C                 11.9557460000     -6.8042630000      1.8463640000
H                 -6.8596240000      6.7681220000      1.5356480000
H                 -8.8800490000      5.4537180000      0.9128170000
H                 -8.6739390000      3.5659550000     -0.7184670000
H                 -6.4382390000      3.0283640000     -1.6952250000
O                 -2.0669120000      6.8157050000      0.4361920000
H                 -1.0090590000      5.5883260000     -1.4904250000
H                 -1.7933160000      4.3622110000     -2.5113320000
H                 -1.5028640000      2.6736260000     -0.7219440000
H                 -0.7063520000      3.8686850000      0.3009160000
H                  1.0971400000      4.1371070000     -1.4343330000
H                  0.3072270000      2.9292060000     -2.4344860000
H                  0.6514440000      1.2138740000     -0.6348990000
H                  1.4358290000      2.4202240000      0.3681690000
H                  3.2199600000      2.7108740000     -1.3788950000
H                  2.4376080000      1.5003630000     -2.3775310000
H                  2.8042720000     -0.2180390000     -0.5811030000
H                  3.5867240000      0.9929560000      0.4172090000
H                  5.3543600000      1.3002920000     -1.3436700000
H                  4.5730800000      0.0860920000     -2.3385090000
H                  4.9655990000     -1.6331310000     -0.5478460000
H                  5.7480840000     -0.4176580000      0.4462960000
H                  7.4972820000     -0.0910900000     -1.3322740000
H                  6.7151010000     -1.3126780000     -2.3224020000
H                  7.1596250000     -3.0417690000     -0.5532510000
H                  7.9499070000     -1.8078770000      0.4445720000
H                  9.3239180000     -5.2877330000     -1.7154090000
H                 11.0478780000     -2.3119450000      0.8518280000
H                 12.1008600000     -4.0891870000      2.2013860000
H                 10.3920010000     -7.0628070000     -0.3764500000
H                 12.5793960000     -6.3975500000      2.6475060000
H                 12.6006040000     -7.4303310000      1.2107130000
H                 11.2219000000     -7.4727610000      2.3040660000
H                 -2.5201580000      7.4348030000      1.0566500000





