%chk=024.chk
%nproc=8
%mem=30GB
#P UB3LYP/6-311++G(d,p) nosym opt freq

Oxidized

0 1
C         -1.65539        0.78588        1.57990
C         -2.91122        1.06668        0.83091
C         -2.90503        1.00628       -0.52139
C         -1.65464        0.66259       -1.24468
C         -0.39889        0.38148       -0.49568
C         -0.40505        0.44200        0.85661
O         -1.65998        0.61095       -2.46528
O         -1.64999        0.83776        2.80049
Br         1.17478        0.09277        1.90510
Br        -4.48493        1.35525       -1.56985
N          0.78515        0.05400       -1.21886
N         -4.09539        1.39359        1.55414
H          0.77443        0.01094       -2.24790
H          1.67711       -0.14760       -0.74763
H         -4.08475        1.43623        2.58320
H         -4.98748        1.59469        1.08295








