%chk=134-an.chk
%nproc=8
%mem=30GB
#P UB3LYP/6-311++G(d,p) nosym opt freq SCRF=(PCM,Solvent=n,n-DiMethylFormamide)

Reduced

-2 1
C                  7.1013520000     -1.8498660000     -0.5872060000
C                  7.6240950000     -0.8248900000     -1.4531460000
C                  6.7596340000      0.2506360000     -1.9026220000
C                  5.4626890000      0.2602720000     -1.4793910000
C                  4.8770830000     -0.7213620000     -0.6230010000
C                  5.7005680000     -1.8256690000     -0.1505030000
C                  5.1371250000     -2.8304660000      0.7030770000
C                  3.7339440000     -2.6634410000      1.0519910000
C                  2.9379640000     -1.5646810000      0.5800820000
C                  3.4974060000     -0.5500690000     -0.2835720000
C                  3.1108420000     -3.6210080000      1.8960630000
C                  1.7857500000     -3.5234670000      2.2672820000
C                  1.0032010000     -2.4375510000      1.8008400000
C                  1.5767440000     -1.4902900000      0.9794710000
O                  5.7860950000     -3.8564510000      1.1764960000
O                  2.7757700000      0.4444840000     -0.7121700000
H                  4.8012010000      1.0581400000     -1.8011510000
H                  3.7233310000     -4.4447720000      2.2435270000
H                  0.9961520000     -0.6514830000      0.6123460000
C                  7.2839070000      1.3336980000     -2.8119110000
H                 -0.0401150000     -2.3546850000      2.0900550000
C                  8.9740550000     -0.8767730000     -1.8601220000
C                  8.0136730000     -2.8604490000     -0.1929220000
C                  9.3411020000     -2.8767500000     -0.6148310000
C                  9.8511700000     -1.8834630000     -1.4582510000
C                 11.2932500000     -1.8866620000     -1.9091340000
H                  1.3422160000     -4.2742800000      2.9143250000
H                  8.1172050000      1.8866110000     -2.3629100000
H                  6.4934870000      2.0522270000     -3.0397660000
H                  7.6533600000      0.9338940000     -3.7635800000
H                  9.3474110000     -0.0985800000     -2.5157530000
H                  7.6324130000     -3.6326720000      0.4582510000
H                  9.9931470000     -3.6789360000     -0.2782980000
H                 11.8532050000     -1.0411420000     -1.4783910000
H                 11.3738530000     -1.8011400000     -3.0034790000
H                 11.7993870000     -2.8125030000     -1.6050350000





