%chk=255-an.chk
%nproc=8
%mem=30GB
#P UB3LYP/6-311++G(d,p) nosym opt freq

Reduced

-2 1
C                 -1.6212960000      2.7929560000      0.0378470000
C                 -2.8787200000      2.2321450000      0.0814890000
C                 -3.0046980000      0.8232000000      0.1032030000
C                 -0.4510100000      1.9971170000      0.0157110000
C                 -0.5702280000      0.5507630000      0.0203680000
C                 -1.8921650000     -0.0090660000      0.0761240000
C                  0.8335620000      2.6849510000     -0.0114880000
C                  1.9764700000      1.8331420000     -0.0420790000
C                  1.8757860000      0.4241020000     -0.0379060000
C                  0.6304460000     -0.2830090000     -0.0250650000
O                  0.9125370000      3.9786460000     -0.0062500000
O                  0.5838430000     -1.5786000000     -0.0511860000
C                  3.3286410000      2.5070180000     -0.0792080000
C                  3.1274430000     -0.4231440000     -0.0587160000
C                 -2.1480700000     -1.5042620000      0.0905160000
H                 -1.4701990000      3.8674860000      0.0220680000
H                 -3.7706200000      2.8577990000      0.1006840000
H                 -3.9969920000      0.3741670000      0.1285470000
H                  3.1697000000      3.5830400000     -0.1857730000
H                  3.9538520000      2.1486690000     -0.9113400000
H                  3.9135280000      2.3362650000      0.8405840000
H                  3.8477370000     -0.1237820000      0.7174520000
H                  3.6670170000     -0.3607910000     -1.0198090000
H                  2.8380420000     -1.4654160000      0.0954060000
H                 -1.6293360000     -1.9952120000      0.9155100000
H                 -1.7571120000     -1.9850380000     -0.8097250000
H                 -3.2284390000     -1.6935460000      0.1713140000


