%chk=239.chk
%nproc=8
%mem=30GB
#P UB3LYP/6-311++G(d,p) nosym opt freq

Oxidized

0 1
C                 -2.9130890000      1.3131250000     -0.7478140000
C                 -2.1963840000      0.0848590000     -0.1559900000
C                 -2.7335550000     -0.1331940000      1.2811920000
C                 -2.5409230000     -1.1398350000     -1.0408180000
C                 -0.6761280000      0.2858380000     -0.1167030000
C                 -0.0751210000      1.4113040000     -0.5550960000
C                  1.3822670000      1.6584820000     -0.5409000000
O                  1.8306700000      2.7144660000     -0.9624380000
C                  2.2573340000      0.5858320000     -0.0012910000
C                  3.6426370000      0.7575580000      0.0407910000
C                  4.4504410000     -0.2541750000      0.5484150000
C                  3.8770000000     -1.4399950000      1.0152870000
C                  2.4977500000     -1.6150320000      0.9750310000
C                  1.6784270000     -0.6029020000      0.4663280000
C                  0.1964700000     -0.8141250000      0.4331730000
O                 -0.2762970000     -1.8606090000      0.8463970000
H                 -2.6067770000      1.5118700000     -1.7785940000
H                 -3.9897920000      1.1273850000     -0.7556970000
H                 -2.7401530000      2.2159600000     -0.1554980000
H                 -2.3166020000     -1.0301010000      1.7356980000
H                 -3.8220260000     -0.2371940000      1.2481280000
H                 -2.4999360000      0.7250930000      1.9182080000
H                 -3.6277210000     -1.2518100000     -1.0954020000
H                 -2.1206770000     -2.0594700000     -0.6376680000
H                 -2.1685930000     -1.0004330000     -2.0601200000
H                 -0.6428330000      2.2384760000     -0.9615520000
H                  4.0623820000      1.6858230000     -0.3271730000
H                  5.5259820000     -0.1226710000      0.5819580000
H                  4.5087160000     -2.2273350000      1.4106710000
H                  2.0365320000     -2.5271890000      1.3323870000


