%chk=234-rad.chk
%nproc=8
%mem=30GB
#P UB3LYP/6-311++G(d,p) nosym  opt freq

Radical

-1 2
C                  5.7256850000     -5.2350240000      1.1208040000
C                  6.6630530000     -5.1068680000      0.1163760000
C                  6.5394070000     -4.0716810000     -0.8354990000
C                  4.6393340000     -4.3464520000      1.2160100000
C                  4.5162910000     -3.3060870000      0.2584300000
C                  5.4797920000     -3.1905560000     -0.7574500000
C                  3.6621200000     -4.5175630000      2.3017030000
C                  2.5732760000     -3.5628430000      2.3325160000
C                  2.4695480000     -2.5575600000      1.3932460000
C                  3.3973070000     -2.3497550000      0.3144960000
O                  3.7727150000     -5.4410080000      3.1515320000
O                  3.2749080000     -1.4222210000     -0.5270130000
H                  5.8011420000     -6.0214780000      1.8610790000
H                  5.3625070000     -2.3882700000     -1.4751470000
Br                 8.1172110000     -6.3701550000      0.0652780000
Br                 7.8132670000     -3.8381690000     -2.2617670000
C                  1.5599980000     -3.7170570000      3.4350170000
H                  1.6410480000     -1.8551290000      1.4413800000
H                  2.0399060000     -3.6566410000      4.4175610000
H                  1.0849310000     -4.7030230000      3.3937090000
H                  0.7865260000     -2.9473900000      3.3693790000


