%chk=329-an.chk
%nproc=8
%mem=30GB
#P UB3LYP/6-311++G(d,p) nosym opt freq SCF=YQC

Reduced

-2 1
C                 -0.6421260000      2.6873860000     -0.9530000000
C                 -1.7156130000      2.0664920000     -0.3648310000
C                 -1.5953110000      0.7429160000      0.1544250000
C                  0.6342560000      2.0392710000     -1.0782590000
C                  0.7567200000      0.6979680000     -0.5292530000
C                 -0.3770250000      0.0943320000      0.0671420000
C                  1.7451150000      2.6321920000     -1.6755210000
C                  2.9999790000      1.9858040000     -1.7683080000
C                  3.1172740000      0.6313520000     -1.2135980000
C                  2.0104310000      0.0510010000     -0.6229910000
C                  4.1189860000      2.6134200000     -2.3789360000
C                  5.3147000000      1.8436960000     -2.4095140000
C                  5.4669540000      0.5540070000     -1.8954450000
C                  4.3932650000     -0.1327360000     -1.2691170000
O                  4.1604990000      3.8137340000     -2.9154320000
O                  4.4855920000     -1.3093940000     -0.7827020000
O                  6.3542310000      2.5072530000     -3.0148560000
H                 -0.7448400000      3.6969970000     -1.3450720000
H                 -2.6725820000      2.5815110000     -0.2981190000
H                 -2.4539630000      0.2571470000      0.6105580000
H                 -0.2682460000     -0.9129390000      0.4651380000
H                  1.6720380000      3.6357510000     -2.0850220000
H                  2.1346990000     -0.9523780000     -0.2238920000
H                  6.4285260000      0.0531160000     -1.9705360000
H                  5.8787430000      3.3543740000     -3.2391180000


