%chk=275-rad.chk
%nproc=8
%mem=30GB
#P UB3LYP/6-311++G(d,p) nosym  opt freq

Radical

-1 2
C                  0.2458590000     -0.5615960000     -0.1442490000
C                 -0.3321890000     -1.7477570000     -0.5440840000
C                 -1.7587570000     -1.9285990000     -0.5645250000
O                 -2.2950460000     -3.0060850000     -0.9272900000
C                 -2.5772360000     -0.7745230000     -0.1333150000
C                 -3.9793740000     -0.8751700000     -0.1261200000
C                 -4.7722680000      0.1882040000      0.2722950000
C                 -4.1713670000      1.3963590000      0.6792450000
C                 -2.7943570000      1.5188750000      0.6804930000
C                 -1.9707630000      0.4449940000      0.2774870000
C                 -0.5246810000      0.5937150000      0.2860000000
O                  0.0693810000      1.6603070000      0.6437030000
H                  0.2842650000     -2.5793080000     -0.8552970000
H                 -4.4116460000     -1.8171760000     -0.4445170000
H                 -5.8541090000      0.0929570000      0.2716980000
H                 -4.7914120000      2.2316240000      0.9923300000
H                 -2.3088710000      2.4376410000      0.9891910000
N                  1.6200170000     -0.2849830000     -0.0887480000
C                  2.6999430000     -1.0670980000     -0.3897280000
N                  3.9124180000     -0.4103080000     -0.1887020000
C                  5.1816180000     -1.0475540000     -0.4545710000
O                  2.6554380000     -2.2232420000     -0.7944500000
H                  1.7475080000      0.6702710000      0.2462010000
H                  3.9024880000      0.5431560000      0.1344940000
H                  4.9706680000     -2.0602170000     -0.7976340000
H                  5.8050050000     -1.1066700000      0.4459850000
H                  5.7466140000     -0.5249640000     -1.2363780000





