%chk=042-rad.chk
%nproc=8
%mem=30GB
#P UB3LYP/6-311++G(d,p) nosym  opt freq SCRF=(PCM,Solvent=n,n-DiMethylFormamide)

Radical

-1 2
C                  1.1005560000      1.3810420000     -1.3559770000
C                 -0.1518330000      0.6790360000     -1.4358500000
C                 -0.4694040000     -0.3969660000     -0.6447190000
C                  0.4806240000     -0.8815020000      0.3469850000
C                  1.7577470000     -0.1725990000      0.4412210000
C                  2.0568460000      0.9057100000     -0.3662300000
C                  3.3752150000      1.6253560000     -0.2487320000
C                  2.7520660000     -0.6660950000      1.4644590000
O                  1.3462480000      2.3704080000     -2.1228960000
O                  0.2171520000     -1.8682050000      1.0986020000
H                 -0.8645350000      1.0422100000     -2.1718850000
H                  4.2181940000      0.9660360000     -0.4948290000
H                  3.5479720000      1.9889840000      0.7699000000
H                  3.3988930000      2.4755500000     -0.9293460000
H                  2.3642680000     -1.5460600000      1.9754010000
H                  2.9666790000      0.1019480000      2.2165020000
H                  3.7099680000     -0.9233560000      1.0005520000
C                 -1.8062120000     -1.0719940000     -0.8486990000
C                 -1.7494310000     -2.5561340000     -1.1945160000
O                 -2.6001490000     -0.8895140000      0.3835190000
C                 -3.9239210000     -0.7168530000      0.2731020000
C                 -4.5594610000     -0.5209320000      1.6262580000
O                 -4.5274220000     -0.7092110000     -0.7827500000
H                 -2.3403080000     -0.5408260000     -1.6376510000
H                 -2.7574970000     -2.9509980000     -1.3467270000
H                 -1.2527450000     -3.1138660000     -0.4030870000
H                 -1.1916130000     -2.6891320000     -2.1240540000
H                 -4.2832280000     -1.3457470000      2.2968750000
H                 -5.6471730000     -0.4731620000      1.5207470000
H                 -4.1884440000      0.4097720000      2.0752730000





