%chk=315-an.chk
%nproc=8
%mem=30GB
#P UB3LYP/6-311++G(d,p) nosym opt freq

Reduced

-3 1
C         -5.05242       -0.09059       -3.93079
C         -4.48387       -0.05953       -5.20596
C         -3.09941        0.00777       -5.34941
C         -4.23788       -0.05390       -2.78820
C         -2.85530        0.01344       -2.93688
C         -2.28404        0.04412       -4.21757
C         -4.86167       -0.08855       -1.44496
C         -3.94887       -0.03282       -0.28477
C         -2.61800        0.03067       -0.43145
C         -1.98134        0.05331       -1.75339
O         -6.08238       -0.16238       -1.38770
O         -0.76236        0.10572       -1.86686
S         -4.60734       -0.05083        1.34339
O         -5.45720        1.13561        1.39956
O         -5.29826       -1.33430        1.43510
O         -3.43856        0.03760        2.22292
H         -6.13541       -0.14343       -3.82616
H         -5.12455       -0.08810       -6.08390
H         -2.65397        0.03202       -6.34075
H         -1.20295        0.09669       -4.33272
H         -1.94213        0.06945        0.41645








