%chk=273.chk
%nproc=8
%mem=30GB
#P UB3LYP/6-311++G(d,p) nosym opt freq

Oxidized

0 1
C         -0.85311        3.86953       -0.03597
C         -1.99723        3.20044        0.40422
C         -1.95588        1.82592        0.63917
C          0.34659        3.16378       -0.24573
C          0.38856        1.78033       -0.01123
C         -0.77041        1.11638        0.43421
C          1.56816        3.85619       -0.71175
C          2.83602        3.10075       -0.94259
C          2.89133        1.75095       -0.70585
C          1.65543        1.04250       -0.22880
O          1.53482        5.05981       -0.92485
O          1.69954       -0.15050        0.03403
N          3.94681        3.82675       -1.47157
H         -0.90672        4.93665       -0.21171
H         -2.91682        3.74860        0.56378
H         -2.84342        1.30919        0.98099
H         -0.76081        0.05028        0.62344
H          3.88004        4.84166       -1.63338
H          4.79950        3.36881       -1.81222
N          4.10429        0.98502       -0.87953
C          5.37839        1.43539       -0.34155
C          4.08391       -0.32168       -1.51548
H          5.28060        2.39414        0.20944
H          6.12265        1.54369       -1.15898
H          5.75843        0.68687        0.38570
H          3.08288       -0.57161       -1.92335
H          4.39056       -1.10388       -0.78897
H          4.79032       -0.32640       -2.37239








