%chk=176-an.chk
%nproc=8
%mem=30GB
#P UB3LYP/6-311++G(d,p) nosym opt freq

Reduced

-2 1
N    -2.8471562912   -2.5319468655   -0.1873236509
C    -2.5602341706   -1.1743343349    0.0645502806
C    -3.6012305804   -0.3242626780    0.3833237278
C    -3.3666458816    1.0275438887    0.6546243322
C    -2.0607978482    1.4723965284    0.5903108856
N    -1.7553961367    2.8278778419    0.8617057221
C    -1.0256332004    0.6190112610    0.2725935816
C     0.3561491754    1.1106541599    0.2102990558
O     0.5367620164    2.3160157040    0.4500152287
C     1.4775164673    0.2373311025   -0.1202513112
C     1.2092136002   -1.1149375672   -0.3925161462
C     2.2302160598   -1.9641557833   -0.7397475704
C     3.5305987661   -1.5182078812   -0.8309989057
C     3.8120853248   -0.2168063657   -0.5707190122
C     2.7735556593    0.6532286891   -0.2126452830
N     3.1708675222    1.9846109147    0.0426500268
O     2.5802535114    2.7799110175    0.9526280798
O     4.1651249932    2.4599574917   -0.6250086621
C    -0.1698990768   -1.6108758312   -0.3330555741
O    -0.3904419496   -2.8144712581   -0.5729760671
C    -1.2593473926   -0.7250596696    0.0019692210
H    -3.2292402496   -3.0970788994    0.5866063386
H    -2.6735008245   -2.9604723301   -1.1053243901
H    -4.6210345619   -0.6804831508    0.4275686580
H    -4.1551227081    1.7086896058    0.9070974477
H    -1.8539277469    3.1397331981    1.8670640113
H    -1.4551148942    3.4852326388    0.1119554085
H     2.0309809123   -3.0055541133   -0.9450084243
H     4.3338503185   -2.2419511071   -1.1097550300
H     4.8175491862    0.1584037931   -0.6396319787


