%chk=146-PCM.chk
%nproc=8
%mem=30GB
#P UB3LYP/6-311++G(d,p) SCRF=(PCM,Solvent=n,n-DiMethylFormamide)

Quinone PCM in DMF 

0 1
C                  2.6971390000      2.9820330000      1.5178120000
C                  2.5077500000      1.5046820000      1.6951440000
O                  2.2052160000      0.9287640000      2.7000780000
O                  2.7523120000      0.8518450000      0.5018160000
C                  2.4634490000     -0.5002580000      0.4280360000
C                  3.5219590000     -1.3835400000      0.6046100000
C                  3.3221200000     -2.7541060000      0.4757530000
C                  2.0618140000     -3.2400510000      0.1539260000
C                  1.0016570000     -2.3551370000     -0.0454190000
C                 -0.3188110000     -2.9274610000     -0.4342340000
O                 -0.4979250000     -4.1334060000     -0.4658770000
C                 -1.3986800000     -1.9781120000     -0.8280040000
C                 -2.5737710000     -2.5119180000     -1.3580290000
C                 -3.5931350000     -1.6680120000     -1.7785440000
C                 -3.4411280000     -0.2901360000     -1.6631540000
C                 -2.2809310000      0.2446330000     -1.1155980000
O                 -2.1715000000      1.6247350000     -1.0971910000
C                 -2.4869100000      2.2861210000      0.0747250000
C                 -2.1213500000      3.7361220000     -0.0421850000
O                 -2.9902780000      1.7395260000      1.0132910000
C                 -1.2294980000     -0.5851310000     -0.6857890000
C                  0.0198800000     -0.0291020000     -0.0767470000
O                  0.0894590000      1.1374910000      0.2724910000
C                  1.1768860000     -0.9629810000      0.0974130000
H                  1.8861800000      3.3593380000      0.8908700000
H                  2.6719460000      3.4711080000      2.4892220000
H                  3.6390370000      3.1908700000      1.0074090000
H                  4.4965580000     -0.9774570000      0.8461860000
H                  4.1502270000     -3.4369340000      0.6251620000
H                  1.8742520000     -4.3002800000      0.0438460000
H                 -2.6602500000     -3.5879230000     -1.4362190000
H                 -4.5050040000     -2.0774990000     -2.1970570000
H                 -4.2169770000      0.3907980000     -1.9910240000
H                 -2.5265620000      4.2829060000      0.8065300000
H                 -1.0319980000      3.8158130000     -0.0492370000
H                 -2.4931380000      4.1526610000     -0.9800100000





