%chk=309-an.chk
%nproc=8
%mem=30GB
#P UB3LYP/6-311++G(d,p) nosym opt freq  

Reduced

-2 1
 O                  1.68181800    2.51087500    0.40465800
 C                  1.41075500    1.25884800    0.20931100
 C                  0.05071900    0.72258500    0.20716300
 C                 -1.03333300    1.60516500    0.42774400
 C                 -2.35787000    1.18459500    0.44291700
 C                 -2.65748000   -0.19447000    0.22843700
 C                 -1.62800600   -1.09456800    0.00835100
 C                 -0.26099400   -0.69582100   -0.01326200
 C                  0.78499600   -1.63503400   -0.24102500
 O                  0.68549900   -2.94278900   -0.45689900
 C                  2.08284500   -1.08102600   -0.23156600
 O                  3.09598300   -2.01583800   -0.45594300
 C                  2.40463700    0.26305000   -0.02439600
 O                  3.76415500    0.61541300   -0.05295300
 H                 -0.77524900    2.65107800    0.58831400
 H                 -3.16327200    1.90201600    0.61728800
 H                 -3.69498400   -0.53863900    0.23781600
 H                 -1.83601700   -2.15112800   -0.15745300
 H                  2.50820300   -2.82582200   -0.55445300
 H                  4.22451500   -0.22354400   -0.22491400














