%chk=080-an-PCM.chk
%nproc=8
%mem=30GB
#P UB3LYP/6-311++G(d,p) SCRF=(PCM,Solvent=n,n-DiMethylFormamide)

Reduced 

-2 1
C                  1.3350070000      1.0093560000     -2.7794220000
C                 -0.0613510000      1.3655750000     -2.9252910000
C                 -1.0596340000      0.9642850000     -2.0679510000
C                 -0.7891010000      0.1035750000     -0.9151040000
C                  0.5591110000     -0.2843460000     -0.7854230000
O                  2.2152360000      1.5314470000     -3.5404450000
O                 -1.7544120000     -0.2530930000     -0.1293010000
H                 -0.2880100000      2.0309090000     -3.7591710000
C                  1.6073800000      0.0824230000     -1.6839990000
C                  2.9362730000     -0.4290630000     -1.4059890000
C                  3.9989360000     -0.5399400000     -2.4840130000
C                  5.3470740000     -0.4768200000     -2.1018010000
C                  3.7120460000     -0.8701240000     -3.8164360000
C                  6.3748040000     -0.7135670000     -3.0160200000
C                  6.0749000000     -1.0517450000     -4.3353820000
C                  4.7322960000     -1.1356270000     -4.7253540000
O                  3.2788450000     -0.8873110000     -0.2891790000
H                  5.5675470000     -0.2549640000     -1.0637530000
H                  2.6770940000     -0.9109200000     -4.1295240000
H                  7.4130610000     -0.6492770000     -2.6951790000
H                  6.8718030000     -1.2562130000     -5.0472600000
H                  4.4825500000     -1.3980770000     -5.7503500000
C                 -2.4878280000      1.3951810000     -2.2770680000
H                  0.8168850000     -0.9409450000      0.0392810000
H                 -2.5894940000      2.0242310000     -3.1697070000
H                 -2.8603400000      1.9439900000     -1.4028610000
H                 -3.1450260000      0.5213290000     -2.3708090000





