%chk=077.chk
%nproc=8
%mem=30GB
#P UB3LYP/6-311++G(d,p) nosym opt freq

Oxidized

0 1
C          0.42605        1.79144       -2.10375
C         -1.00452        2.15867       -2.17672
C         -1.96929        1.23828       -2.11852
C         -1.64623       -0.19082       -1.97283
C         -0.22402       -0.55995       -1.87734
C          0.75524        0.35687       -1.91697
O          1.27250        2.66769       -2.21688
O         -2.52975       -1.03450       -1.91877
C          3.20931        0.70790       -1.27245
C          4.28694        0.97289       -2.12930
C          3.19534        1.21176        0.04204
C          4.25175        2.04431        0.44531
C          5.33341        1.78806       -1.70308
C          5.31073        2.32965       -0.42025
H         -1.22452        3.21387       -2.29187
H         -3.02026        1.49515       -2.17880
H         -0.02776       -1.62184       -1.76192
H          4.30801        0.54991       -3.13114
H          4.26396        2.47194        1.44615
H          6.16324        2.00279       -2.37136
H          6.12344        2.97152       -0.08864
C          2.14278       -0.17020       -1.79718
O          2.42828       -1.32018       -2.12186
C          2.09510        0.91041        1.01850
H          1.78212       -0.13615        0.94860
H          1.23584        1.56240        0.83614
H          2.42944        1.06889        2.04970











