%chk=024.chk
%nproc=8
%mem=30GB
#P UB3LYP/6-311++G(d,p) nosym opt freq

Oxidized

0 1
C                 -1.6505280000      0.7866210000      1.6294840000
C                 -2.9003390000      1.0616240000      0.7802230000
C                 -2.8635080000      0.9928430000     -0.5856830000
C                 -1.6596860000      0.6610960000     -1.2942210000
C                 -0.4098360000      0.3862450000     -0.4449660000
C                 -0.4466680000      0.4550220000      0.9209400000
O                 -1.5430810000      0.5796370000     -2.5079960000
O                 -1.7670650000      0.8683510000      2.8432480000
Br                 1.1235510000      0.1078570000      1.9491760000
Br                -4.4336790000      1.3401970000     -1.6139270000
N                  0.6600860000      0.0868780000     -1.1852150000
N                 -3.9702330000      1.3611050000      1.5204660000
H                  0.5398660000      0.0730170000     -2.1897880000
H                  1.5503680000     -0.1166180000     -0.7592540000
H                 -3.8500280000      1.3749090000      2.5250420000
H                 -4.8604890000      1.5647050000      1.0945010000


