%chk=046-an.chk
%nproc=8
%mem=30GB
#P UB3LYP/6-311++G(d,p) nosym opt freq

Reduced

-2 1
C                  2.5849490000     -0.3316850000     -1.9393140000
C                  2.5707510000     -0.0080040000     -0.4250000000
C                  2.7900330000      1.5140610000     -0.2300120000
C                  3.7730690000     -0.7295490000      0.2168380000
C                  1.2119580000     -0.4224690000      0.1859110000
C                  1.1495470000     -1.3650990000      1.2171210000
C                 -0.0634190000     -1.8084340000      1.8323910000
O                 -0.0945240000     -2.6858990000      2.7863470000
C                 -1.2394500000     -1.1994180000      1.2915740000
C                 -1.2350230000     -0.2527310000      0.2621920000
C                  0.0073800000      0.1872540000     -0.3370410000
O                  0.0391180000      1.0760200000     -1.2973260000
C                 -2.5589770000      0.3479870000     -0.2649440000
C                 -2.7117210000      0.0358320000     -1.7739720000
C                 -3.8071310000     -0.2033020000      0.4535640000
C                 -2.5536270000      1.8848970000     -0.0632680000
H                  3.5199510000      0.0115450000     -2.4070580000
H                  2.5041100000     -1.4147030000     -2.0926550000
H                  1.7338860000      0.1597730000     -2.4153920000
H                  1.9548420000      2.0560600000     -0.6762840000
H                  3.7367660000      1.8364060000     -0.6941060000
H                  2.8388440000      1.7517130000      0.8388730000
H                  3.7083070000     -1.8151470000      0.0943610000
H                  3.8473130000     -0.5186180000      1.2886850000
H                  4.7020160000     -0.3887890000     -0.2602280000
H                  2.0550710000     -1.8171260000      1.6111440000
H                 -2.1724660000     -1.5240100000      1.7428340000
H                 -3.6175610000      0.5069310000     -2.1842930000
H                 -2.7909110000     -1.0473060000     -1.9273430000
H                 -1.8320940000      0.4071350000     -2.3039710000
H                 -3.7848130000      0.0115810000      1.5269600000
H                 -4.7079860000      0.2643490000      0.0335580000
H                 -3.9006170000     -1.2869320000      0.3323380000
H                 -3.4743990000      2.3365950000     -0.4679290000
H                 -2.5014530000      2.1223310000      1.0055160000
H                 -1.6817340000      2.3087490000     -0.5638670000


