%chk=334-an.chk
%nproc=8
%mem=30GB
#P UB3LYP/6-311++G(d,p) nosym opt freq

Reduced

-2 1
C         -1.02940        0.68652       -2.84728
C         -1.88958        1.15294       -1.72654
C          0.43311        0.70169       -2.57457
C          0.86476        0.65246       -1.29751
C         -0.15315        0.34082       -0.26348
C         -1.41515        1.09526       -0.46513
C          0.01520       -0.61551        0.70670
C         -0.99736       -0.91819        1.74426
C          1.27889       -1.35935        0.91464
C         -0.56590       -0.94529        3.02126
C          1.75924       -1.39594        2.17384
C          0.89810       -0.91825        3.29045
O         -1.47943        0.46655       -3.96285
O          1.34924       -0.68062        4.40193
C          2.28813        1.00203       -0.92587
C          2.65315        2.44947       -1.28804
C          4.08040        2.78472       -0.85178
C          4.45420        4.21232       -1.21714
C          1.93769       -2.13269       -0.20430
C          1.82480       -3.65081       -0.00272
C          2.46680       -4.41160       -1.16396
C          2.37168       -5.91582       -0.96531
C         -2.41728       -1.28889        1.38306
C         -2.71103       -2.77330        1.64422
C         -4.14113       -3.13321        1.23845
C         -4.44448       -4.59864        1.50617
C         -2.07517        1.84900        0.66738
C         -2.07861        3.36825        0.44080
C         -2.70514        4.10213        1.62765
C         -2.72270        5.60618        1.40682
H         -2.81950        1.63216       -2.00292
H          1.07799        0.87507       -3.42596
H         -1.20886       -1.11474        3.87493
H          2.69060       -1.87029        2.45386
H          2.97559        0.31394       -1.43267
H          2.45199        0.88315        0.15001
H          1.95018        3.13970       -0.80456
H          2.56284        2.60381       -2.37015
H          4.78665        2.09483       -1.32795
H          4.17907        2.65361        0.23204
H          4.39922        4.36754       -2.29936
H          5.47702        4.43077       -0.89476
H          3.78461        4.92973       -0.73245
H          2.99548       -1.84891       -0.26840
H          1.48652       -1.89326       -1.17195
H          0.76824       -3.93503        0.08216
H          2.31295       -3.94505        0.93450
H          3.52118       -4.12709       -1.25745
H          1.97290       -4.14116       -2.10443
H          2.88679       -6.22404       -0.04993
H          2.83462       -6.43950       -1.80753
H          1.32781       -6.23768       -0.89741
H         -2.62320       -1.09196        0.32669
H         -3.11321       -0.66965        1.96260
H         -2.56859       -3.00555        2.70679
H         -2.00296       -3.39495        1.08162
H         -4.28940       -2.92425        0.17265
H         -4.85300       -2.51130        1.79333
H         -3.76829       -5.24893        0.94242
H         -5.47054       -4.83423        1.20689
H         -4.33932       -4.83303        2.57026
H         -1.56005        1.66119        1.61494
H         -3.10624        1.49487        0.78760
H         -2.63827        3.61450       -0.46974
H         -1.05038        3.72187        0.29231
H         -2.14287        3.87978        2.54200
H         -3.73118        3.74938        1.78354
H         -1.70810        5.99574        1.27714
H         -3.17289        6.11051        2.26752
H         -3.30681        5.86542        0.51804






