%chk=041-an.chk
%nproc=16
%mem=32GB
#P UB3LYP/6-311++G(d,p) nosym opt freq SCRF=(PCM,Solvent=n,n-DiMethylFormamide)

Reduced

-2 1
 C                 16.72735900    0.76264200    4.09696900
 C                 16.11502700    1.48803000    3.04127300
 C                 16.76208900    1.84000900    1.85039600
 C                 18.12875500    1.48599800    1.62411300
 C                 18.75949200    0.74126000    2.67245100
 C                 18.08997200    0.39262800    3.86676100
 O                 16.06963100    0.45545900    5.20574200
 O                 18.76185600    1.83608500    0.51639000
 C                 18.81693400   -0.38979700    4.93913100
 C                 20.20284000    0.32572900    2.48093700
 H                 15.07579600    1.78026100    3.18002700
 H                 19.16973100   -1.36654600    4.58073900
 H                 18.14432200   -0.56049300    5.78080200
 H                 19.70635100    0.13531900    5.31336700
 H                 20.54680100    0.64780400    1.49754800
 H                 20.33746900   -0.76148800    2.55552500
 H                 20.86956300    0.76645300    3.23506000
 C                 16.05129900    2.64350200    0.76701700
 C                 14.54888800    2.59440600    0.79575700
 C                 13.66733600    3.59580000    0.94377700
 C                 12.17721300    3.31247900    0.91701000
 C                 11.47520300    3.46666200    2.29062200
 C                  9.98860900    3.25453100    2.19983200
 C                  9.24240300    2.28156500    2.74518700
 C                  7.74460800    2.24844600    2.51208600
 C                  7.25916600    1.05646500    1.64915700
 C                  5.78240000    1.12297100    1.36883500
 C                  4.81816800    0.26388200    1.73341700
 C                  3.37705900    0.52794000    1.34408200
 C                 14.04563800    5.04531900    1.13759400
 C                  9.78543400    1.17512500    3.61735600
 C                  5.05312700   -0.99281900    2.53697700
 C                  2.79759100   -0.48280600    0.32291700
 C                  1.34540600   -0.22219600    0.02881500
 C                  0.76838500    0.10553900   -1.13733700
 C                 -0.72977100    0.32459900   -1.20972300
 C                 -1.48823500   -0.72948700   -2.05490900
 C                 -2.97979000   -0.54315500   -1.98824700
 C                 -3.83609200   -0.25003000   -2.97877500
 C                 -5.31700900   -0.10875500   -2.68770000
 C                 -6.19832400   -1.21299800   -3.32386000
 C                 -7.63945500   -1.09962500   -2.90667200
 C                 -8.72101400   -0.87746800   -3.66904300
 C                -10.09643700   -0.80395200   -3.03603700
 C                -11.03772100   -1.97180200   -3.42417000
 C                -12.34730300   -1.91494100   -2.68556500
 C                -13.58748800   -1.78450800   -3.18085400
 C                  1.51288300    0.28336900   -2.43892700
 C                 -3.43646800   -0.03962500   -4.41961200
 C                 -8.68654600   -0.68619600   -5.16651800
 C                -13.91249400   -1.66060600   -4.65025800
 C                -14.78086500   -1.75267200   -2.24673800
 C                -15.71502800   -2.98307400   -2.36565700
 C                -16.81873500   -2.95830000   -1.34339300
 C                -18.14532200   -2.90916800   -1.53890300
 C                -18.80815000   -2.86431000   -2.89493900
 C                -19.08955100   -2.89433000   -0.35322100
 C                -19.96283600   -4.16740300   -0.21909500
 C                -20.79813300   -4.15305500    1.03229000
 C                -22.13415900   -4.13483800    1.14819400
 C                -23.10169500   -4.13582500   -0.00918500
 C                -22.79245500   -4.11390400    2.50733400
 H                 16.39396000    2.25232800   -0.20014600
 H                 16.40720800    3.68132500    0.78182100
 H                 14.13246500    1.59443100    0.66723100
 H                 12.00499600    2.29467300    0.55361800
 H                 11.68913700    3.98962800    0.20244900
 H                 11.66069200    4.47772100    2.67274400
 H                 11.93777700    2.77677900    2.99984700
 H                  9.46676800    3.99569600    1.59318100
 H                  7.43122100    3.18029700    2.03066800
 H                  7.22688200    2.20244600    3.47922900
 H                  7.52717000    0.11426900    2.12999400
 H                  7.80426500    1.08520900    0.69659600
 H                  5.47314200    2.00180400    0.80201500
 H                  3.28990200    1.53498400    0.92529000
 H                  2.75002700    0.50408200    2.24561500
 H                 15.12399300    5.20193400    1.15473400
 H                 13.63848100    5.44082700    2.07454900
 H                 13.62731300    5.66266500    0.33300300
 H                 10.85216200    1.27267100    3.81579900
 H                  9.62264800    0.19410800    3.15846500
 H                  9.26196900    1.15840100    4.58044600
 H                  6.07572000   -1.07905700    2.90324000
 H                  4.83673900   -1.88942300    1.94609300
 H                  4.38090700   -1.02055800    3.40210600
 H                  2.89387500   -1.49596800    0.73162300
 H                  3.40391200   -0.45736400   -0.58551400
 H                  0.69184800   -0.30653600    0.89780100
 H                 -0.93252200    1.31513400   -1.63784000
 H                 -1.14507900    0.32737900   -0.19694600
 H                 -1.23654600   -1.72312300   -1.66130400
 H                 -1.13281100   -0.70669100   -3.08649000
 H                 -3.40005500   -0.65553100   -0.98825900
 H                 -5.66951100    0.86380300   -3.05551900
 H                 -5.47593200   -0.11344900   -1.60470800
 H                 -5.80908000   -2.18601400   -2.99622400
 H                 -6.09856000   -1.19040700   -4.41039500
 H                 -7.80405300   -1.20629300   -1.83393500
 H                -10.58140600    0.13706400   -3.32694800
 H                 -9.99391100   -0.78305000   -1.94643600
 H                -10.52894400   -2.91231500   -3.17462200
 H                -11.19355600   -1.98213300   -4.50425000
 H                -12.25228600   -1.98148600   -1.60122100
 H                  2.59532800    0.25093200   -2.31810400
 H                  1.25206400    1.24423100   -2.89692100
 H                  1.23705200   -0.49134100   -3.16277600
 H                 -2.35659000   -0.02254200   -4.56429700
 H                 -3.84229400    0.90829500   -4.79076500
 H                 -3.84478700   -0.82618900   -5.06357900
 H                 -7.67444100   -0.61501400   -5.56396100
 H                 -9.22376100    0.22775000   -5.44410900
 H                 -9.18836600   -1.51122200   -5.68387200
 H                -13.02621900   -1.55818100   -5.27585600
 H                -14.55218000   -0.78801300   -4.82453000
 H                -14.47134600   -2.53232100   -5.00785900
 H                -15.37555400   -0.85169900   -2.44663200
 H                -14.43039800   -1.67696900   -1.21251600
 H                -15.10716100   -3.88437400   -2.21135800
 H                -16.11617600   -3.05075200   -3.37831800
 H                -16.47134500   -2.97356600   -0.30979700
 H                -18.09837200   -2.74009300   -3.71234200
 H                -19.52391000   -2.03567500   -2.93971300
 H                -19.37894900   -3.77920000   -3.08804300
 H                -19.75936700   -2.02800100   -0.43207700
 H                -18.51297100   -2.76524200    0.56821900
 H                -19.29151800   -5.03569000   -0.19064000
 H                -20.58575200   -4.28578400   -1.10739300
 H                -20.22085500   -4.14436600    1.95724800
 H                -22.61262300   -4.13569300   -0.98285700
 H                -23.75637800   -3.25800200    0.04102500
 H                -23.75703900   -5.01337400    0.04076100
 H                -22.05771900   -4.11356100    3.31520900
 H                -23.44653200   -4.98418300    2.63856600
 H                -23.42818100   -3.22771600    2.62050600










