%chk=322.chk
%nproc=8
%mem=30GB
#P UB3LYP/6-311++G(d,p) nosym opt freq

Oxidized

0 1
C                 -1.6658180000      2.8685660000     -0.7048790000
C                 -2.8538720000      2.2212480000     -0.3805930000
C                 -2.8238560000      0.8885650000      0.0273670000
C                 -0.4473870000      2.1927650000     -0.6242220000
C                 -0.4148500000      0.8450510000     -0.2119720000
C                 -1.6137910000      0.2031680000      0.1118330000
C                  0.8090210000      2.9121830000     -0.9777150000
C                  2.1411340000      2.1152510000     -0.8718550000
C                  2.0616990000      0.7304210000     -0.4366860000
C                  0.8785530000      0.1367100000     -0.1292910000
O                  0.8219860000      4.0675310000     -1.3350780000
O                  3.1890870000      2.6649850000     -1.1510320000
O                  0.7484990000     -1.1395540000      0.2780060000
C                  1.9176620000     -1.9546570000      0.4062390000
C                  1.5483510000     -3.3292520000      0.8696860000
C                  0.3253460000     -3.7738370000      1.1361770000
H                 -1.6575340000      3.9034810000     -1.0249480000
H                 -3.7970820000      2.7510890000     -0.4451100000
H                 -3.7456410000      0.3778250000      0.2816090000
H                 -1.5946750000     -0.8301120000      0.4285710000
H                  3.0051930000      0.2065050000     -0.3742430000
H                  2.6083710000     -1.4881860000      1.1202620000
H                  2.4306470000     -2.0077920000     -0.5625410000
H                  2.4048920000     -3.9898560000      0.9831780000
H                 -0.5472160000     -3.1415040000      1.0330930000
H                  0.1651740000     -4.7926220000      1.4676530000


