%chk=035-rad.chk
%nproc=8
%mem=30GB
#P UB3LYP/6-311++G(d,p) nosym  opt freq SCRF=(PCM,Solvent=n,n-DiMethylFormamide)

Radical

-1 2
C                  2.4861380000     -4.8028150000      2.0561040000
C                  2.4926000000     -3.9294680000      0.8980880000
C                  2.1096820000     -2.6158220000      0.8522560000
C                  1.6438850000     -1.9950020000      2.0934490000
C                  1.6518530000     -2.8647990000      3.2567680000
C                  2.0237890000     -4.1810860000      3.2903600000
O                  2.8550730000     -5.9992290000      1.9985680000
O                  1.2386570000     -0.8107540000      2.1523430000
C                  1.9908560000     -5.0379880000      4.5248320000
C                  2.1457730000     -1.7929470000     -0.4270320000
C                  0.7355280000     -1.3454270000     -0.8602810000
C                  3.1090370000     -0.5951570000     -0.3110870000
N                  2.9712160000     -4.5885750000     -0.3443930000
N                  1.1938270000     -2.2312040000      4.5126710000
H                  2.1113970000     -4.4525190000      5.4381590000
H                  2.7795740000     -5.7886300000      4.4618360000
H                  1.0383000000     -5.5742690000      4.5958710000
H                  2.5332030000     -2.4348430000     -1.2229670000
H                  0.7905510000     -0.8156720000     -1.8178520000
H                  0.2979740000     -0.6807960000     -0.1147000000
H                  0.0769960000     -2.2087590000     -0.9895490000
H                  3.1606450000     -0.0645920000     -1.2683600000
H                  4.1179320000     -0.9317190000     -0.0569480000
H                  2.7685710000      0.0988430000      0.4580710000
O                  4.1673730000     -4.5281740000     -0.5948900000
O                  2.1406860000     -5.1477430000     -1.0473790000
O                  0.0942510000     -2.5566090000      4.9499610000
O                  1.9442520000     -1.4314550000      5.0531410000


