%chk=252-rad.chk
%nproc=8
%mem=30GB
#P UB3LYP/6-311++G(d,p) nosym opt freq Int=Acc2E=11 SCRF=(PCM,Solvent=n,n-DiMethylFormamide)

Radical

-1 2
C                 -3.60745000    5.65637200    3.42120500
 C                 -2.58302700    6.20592100    4.17233400
 C                 -2.08155000    5.51142200    5.28937100
 C                 -4.16471300    4.40429400    3.75439900
 C                 -3.65825700    3.70446700    4.87900800
 C                 -2.61484700    4.28107800    5.63202900
 C                 -5.25265300    3.84072100    2.94383100
 C                 -5.78008700    2.55392800    3.34390900
 C                 -5.27360800    1.86362300    4.44142200
 C                 -4.20878600    2.39708700    5.25947000
 O                 -5.69896200    4.47227600    1.93659700
 O                 -3.75596300    1.77241700    6.26753900
 H                 -2.16648000    7.17037400    3.90178100
 H                 -1.27884900    5.94078900    5.87943300
 C                 -6.90166700    1.97906100    2.51209200
 H                 -4.00361000    6.17905000    2.55897700
 H                 -2.24077500    3.73370700    6.48887200
 H                 -6.56891700    1.10897600    1.93316200
 H                 -7.26144500    2.72765800    1.80784100
 H                 -7.73677900    1.64783400    3.13481300
 C                 -5.83415400    0.51195400    4.84986600
 C                 -6.98854800    0.63568700    5.81933300
 C                 -8.18157400    0.02235400    5.78869200
 C                 -9.20021400    0.29152800    6.87898600
 C                 -9.51573300   -0.93289300    7.77445500
 C                -10.55724000   -0.61957900    8.81375800
 C                -10.44427600   -0.63311800   10.15085000
 C                 -8.61432300   -0.95367700    4.72107400
 C                -11.63125500   -0.25927500   11.01722000
 C                -11.45828300    1.07312100   11.78954300
 C                -12.63368900    1.37131800   12.67987600
 C                -13.49564100    2.39808800   12.62102500
 C                 -9.19000200   -1.01477300   10.89963000
 C                -13.42690200    3.51575800   11.60832100
 C                -14.62529700    2.50030100   13.62722700
 C                -16.03740000    2.28775900   13.02495100
 C                -17.12312400    2.47146400   14.05004800
 C                -17.99992700    1.57071000   14.51961500
 C                -18.07966000    0.13459600   14.06075600
 C                -19.01021600    1.97392500   15.57593300
 C                -18.76983400    1.32817700   16.96416700
 C                -19.83024200    1.71246800   17.95972000
 C                -19.70314800    2.41348800   19.09685500
 C                -18.39694200    2.95251600   19.62847800
 C                -20.92162800    2.70220300   19.95198300
 C                -21.35147500    4.19132600   19.96194300
 C                -22.51238200    4.44162100   20.88552700
 C                -23.75584000    4.84629600   20.58440300
 C                -24.23723500    5.16622900   19.18972500
 C                -24.78479600    5.02324000   21.68403400
 C                -25.92099300    3.96942100   21.66677200
 C                -26.95959800    4.23556600   22.72222600
 C                -27.28701200    3.48470700   23.78409100
 C                -26.65327300    2.16127800   24.13428400
 C                -28.36439800    3.93041900   24.74415000
 H                 -5.02819400   -0.03991300    5.34469100
 H                 -6.12338400   -0.06148600    3.96839600
 H                 -6.79845100    1.31593500    6.64821300
 H                -10.13856600    0.63223700    6.41997100
 H                 -8.84596700    1.10760400    7.51580000
 H                 -8.58728500   -1.28684200    8.22846600
 H                 -9.88543400   -1.74884400    7.14167000
 H                -11.52569700   -0.33183600    8.40295300
 H                 -7.92603300   -0.99167800    3.87693500
 H                 -9.60687000   -0.68877900    4.33899000
 H                 -8.69612900   -1.96987900    5.12241600
 H                -11.81370300   -1.05994800   11.74662900
 H                -12.52907600   -0.18737200   10.39607200
 H                -11.28345800    1.87661500   11.07053300
 H                -10.55719500    1.00867800   12.41119200
 H                -12.79401900    0.63627500   13.46940200
 H                 -8.38091200   -1.33248400   10.24280700
 H                 -9.39930200   -1.83306300   11.59854600
 H                 -8.81835000   -0.17931900   11.50219900
 H                -12.57208500    3.43251400   10.93799800
 H                -13.36495400    4.48520500   12.11643800
 H                -14.33049100    3.54653300   10.99043100
 H                -14.59800000    3.49096400   14.10072800
 H                -14.47334300    1.76574100   14.42369100
 H                -16.07946100    1.29736800   12.56605300
 H                -16.19262400    3.01336500   12.21760800
 H                -17.18012300    3.47870800   14.46418900
 H                -17.37055100   -0.10000500   13.26750500
 H                -19.08701300   -0.09076100   13.69156900
 H                -17.89086700   -0.55669900   14.88883000
 H                -20.01794100    1.69866800   15.23681900
 H                -19.00266600    3.06169900   15.69282400
 H                -17.77174100    1.60351800   17.31230000
 H                -18.77243200    0.23715600   16.85392700
 H                -20.83334900    1.37458100   17.69705500
 H                -17.54228200    2.69371900   19.00429400
 H                -18.20892100    2.56535000   20.63677800
 H                -18.42518600    4.04373000   19.71559100
 H                -20.71874200    2.39415300   20.98642200
 H                -21.76548800    2.09972000   19.60284300
 H                -21.57714500    4.49907300   18.93844500
 H                -20.50410000    4.80367800   20.29260700
 H                -22.29565100    4.25202200   21.93738500
 H                -23.46130400    5.05257500   18.43334500
 H                -24.60705500    6.19724500   19.14283400
 H                -25.07575300    4.52276100   18.90344100
 H                -25.23708400    6.02040000   21.59901300
 H                -24.28975400    4.98345100   22.65891300
 H                -25.48153000    2.97537400   21.77685300
 H                -26.40830600    3.98736500   20.68458200
 H                -27.49819100    5.17507300   22.59488000
 H                -25.86521200    1.86235000   23.44377300
 H                -27.40914900    1.36720500   24.15022600
 H                -26.22396200    2.19953600   25.14222000
 H                -28.79537300    4.89107900   24.45447700
 H                -27.96705600    4.02474200   25.76176800
 H                -29.17378200    3.19226100   24.79411900










