%chk=042.chk
%nproc=8
%mem=30GB
#P UB3LYP/6-311++G(d,p) nosym opt freq

Oxidized

0 1
C          0.85163        1.60729       -0.56705
C         -0.38765        0.82960       -0.74211
C         -0.43857       -0.49277       -0.48601
C          0.81877       -1.16976       -0.01294
C          2.08732       -0.38952        0.16121
C          2.09919        0.94598       -0.10481
C          3.33366        1.81369        0.04481
C          3.33587       -1.10896        0.63149
O          0.84080        2.80492       -0.80976
O          0.82377       -2.36432        0.23648
H         -1.27607        1.35337       -1.08780
H          4.23380        1.27069        0.39023
H          3.12763        2.61997        0.77978
H          3.57766        2.27579       -0.93475
H          3.16360       -2.19096        0.80253
H          3.68561       -0.67265        1.59079
H          4.13460       -1.01822       -0.13480
C         -1.78983       -1.18376       -0.71123
C         -1.80401       -2.70129       -0.46200
O         -2.73237       -0.56097        0.09407
C         -4.08112       -0.70128       -0.00610
C         -4.96802        0.00350        0.96837
O         -4.58218       -1.37469       -0.89512
H         -2.05651       -1.01792       -1.77992
H         -2.80067       -3.13017       -0.68934
H         -1.57518       -2.92501        0.60159
H         -1.07565       -3.20876       -1.12911
H         -4.35898        0.57738        1.69824
H         -5.58518       -0.73814        1.51723
H         -5.63487        0.70587        0.42548








