%chk=333-an.chk
%nproc=8
%mem=30GB
#P UB3LYP/6-311++G(d,p) nosym opt freq

Reduced

-2 1
C         -1.28888        1.68187       -2.86002
C         -2.23873        1.88898       -1.73168
C          0.15162        1.78504       -2.49962
C          0.52754        1.54212       -1.22523
C         -0.52096        0.92905       -0.36044
C         -1.82713        1.64330       -0.46846
C         -0.35686       -0.25226        0.32194
C         -1.42088       -0.86687        1.16454
C          0.94981       -0.95091        0.46348
C          1.34021       -1.19049        1.73312
C          0.36330       -0.99154        2.83899
C         -1.06908       -1.10517        2.44592
O         -1.66491        1.60860       -4.02120
O          0.71210       -0.91504        4.00847
C          1.88469        1.95353       -0.66320
C          1.79703        3.34853       -0.03219
C          3.02352        1.94833       -1.69461
C          1.72602       -1.44384       -0.75415
C          1.19464       -2.80921       -1.20688
C          3.24315       -1.55129       -0.53539
C         -2.77183       -1.26532        0.56380
C         -3.84979       -1.62235        1.59910
C         -2.60601       -2.43977       -0.40675
C         -2.57147        2.12041        0.78162
C         -1.76985        3.20501        1.50976
C         -3.99161        2.64420        0.51738
H         -3.17887        2.35051       -2.00022
H          0.79584        2.18884       -3.26844
H          2.27606       -1.65162        2.01704
H         -1.72594       -1.50118        3.20798
H          2.18469        1.27052        0.13423
H          2.77184        3.65892        0.36007
H          1.09359        3.36066        0.80402
H          1.47260        4.10104       -0.75967
H          3.07730        0.99666       -2.23216
H          3.98731        2.09983       -1.19542
H          2.91093        2.75072       -2.43202
H          1.58169       -0.76141       -1.59418
H          1.26621       -3.55565       -0.40796
H          1.76289       -3.18136       -2.06656
H          0.14868       -2.74264       -1.51608
H          3.50026       -2.36437        0.15234
H          3.65991       -0.62162       -0.13585
H          3.74921       -1.75792       -1.48519
H         -3.18900       -0.43957       -0.01530
H         -4.81029       -1.80406        1.10370
H         -4.00085       -0.80427        2.31168
H         -3.59348       -2.52910        2.15799
H         -3.57822       -2.77825       -0.78176
H         -2.11410       -3.29314        0.07302
H         -2.01347       -2.14394       -1.27781
H         -2.69465        1.29739        1.48721
H         -2.32840        3.59463        2.36804
H         -1.53831        4.04700        0.84810
H         -0.82947        2.80117        1.89783
H         -4.49114        2.88957        1.46147
H         -4.60387        1.88895        0.01260
H         -3.98293        3.55300       -0.09448





