%chk=259.chk
%nproc=8
%mem=30GB
#P UB3LYP/6-311++G(d,p) nosym opt freq

Oxidized

0 1
C                 -1.2205300000      2.8592640000      0.0181060000
C                 -2.5220980000      2.3620060000      0.0164910000
C                 -2.7484890000      0.9798110000      0.0150010000
C                 -0.1424120000      1.9739960000      0.0182320000
C                 -0.3602400000      0.5883250000      0.0167490000
C                 -1.6729400000      0.1058100000      0.0151360000
C                  1.2392570000      2.5347570000      0.0199710000
C                  2.3731350000      1.5401260000      0.0199080000
C                  2.1426950000      0.2069210000      0.0184720000
C                  0.7873750000     -0.3595390000      0.0168930000
O                  1.4582720000      3.7285880000      0.0211970000
O                  0.6192840000     -1.5723950000      0.0154860000
H                 -1.0215270000      3.9259490000      0.0192770000
H                 -1.8289850000     -0.9660020000      0.0140030000
O                  3.5664080000      2.1406120000      0.0214060000
O                 -3.6174120000      3.1710410000      0.0162780000
H                 -3.7691910000      0.6172030000      0.0137630000
H                  2.9430290000     -0.5213890000      0.0184130000
C                  4.7383520000      1.3242240000      0.0215160000
H                 -3.3470120000      4.0958990000      0.0173760000
H                  5.5773940000      2.0162140000      0.0227870000
H                  4.7745890000      0.6967020000     -0.8738990000
H                  4.7732570000      0.6950270000      0.9158080000


