%chk=300-an.chk
%nproc=8
%mem=30GB
#P UB3LYP/6-311++G(d,p) nosym opt freq SCF=YQC Int=Acc2E=11

Reduced

-2 1
C                 -0.7717910000      3.2763930000      0.6447760000
C                 -1.6315840000      3.3052630000     -0.4366240000
C                 -1.2140550000      2.7906710000     -1.6860110000
C                  0.5325720000      2.7382730000      0.5321920000
C                  0.9577600000      2.2141580000     -0.7361250000
C                  0.0593120000      2.2580240000     -1.8170890000
C                  1.4214190000      2.7141770000      1.6627000000
C                  2.7214090000      2.1455220000      1.4345240000
C                  3.1695800000      1.6366020000      0.2254830000
C                  2.2990730000      1.6387430000     -0.9261840000
O                  1.1526480000      3.1540960000      2.8427080000
O                  2.6679950000      1.1744440000     -2.0474760000
O                  3.5150950000      2.1544270000      2.5530710000
C                  4.5581620000      1.0691550000      0.0792830000
C                  4.6201860000     -0.4620850000      0.2485400000
C                  6.0298280000     -1.0343700000      0.0562350000
C                  6.1115430000     -2.5566160000      0.2243420000
C                  7.5201590000     -3.1316880000      0.0278150000
C                  7.5964910000     -4.6547810000      0.1909500000
C                  9.0009370000     -5.2363490000     -0.0151560000
C                  9.0631110000     -6.7609440000      0.1394350000
C                 10.4601070000     -7.3550760000     -0.0766280000
C                 10.4903180000     -8.8898730000      0.0628910000
C                 11.8505880000     -9.5096320000     -0.1713190000
C                 12.7026380000     -9.8287610000      0.8868180000
C                 12.3126760000     -9.7775680000     -1.4678720000
C                 13.5649680000    -10.3317560000     -1.6941360000
C                 14.4108810000    -10.6405380000     -0.6190800000
C                 13.9668040000    -10.3880540000      0.6816810000
O                 15.6223760000    -11.1676940000     -0.9552420000
C                 16.5620360000    -11.5707230000      0.0666520000
C                 16.1672280000    -12.9250550000      0.6989940000
C                 17.9275370000    -11.6427180000     -0.6084730000
C                 19.0411560000    -11.9738150000      0.4089690000
C                 18.5673840000    -12.9283160000      1.5296450000
C                 17.3906570000    -13.7924940000      1.0673640000
H                 -1.0703760000      3.6654190000      1.6125950000
H                 -2.6295620000      3.7231550000     -0.3274780000
H                 -1.8887780000      2.8123810000     -2.5375800000
H                  0.4075100000      1.8546300000     -2.7622240000
H                  2.9078500000      2.5786420000      3.2041110000
H                  5.2258260000      1.5353380000      0.8122850000
H                  4.9209730000      1.3151710000     -0.9250700000
H                  3.9364350000     -0.9151380000     -0.4772320000
H                  4.2506360000     -0.7263160000      1.2470620000
H                  6.7160590000     -0.5567910000      0.7697050000
H                  6.3932250000     -0.7629580000     -0.9441810000
H                  5.4249210000     -3.0333550000     -0.4875920000
H                  5.7472400000     -2.8289950000      1.2241540000
H                  8.2073720000     -2.6572030000      0.7411410000
H                  7.8847380000     -2.8577150000     -0.9710930000
H                  6.9041920000     -5.1270900000     -0.5185540000
H                  7.2359580000     -4.9289400000      1.1913990000
H                  9.6942740000     -4.7712920000      0.6977940000
H                  9.3632590000     -4.9597610000     -1.0139590000
H                  8.3628340000     -7.2222740000     -0.5698940000
H                  8.7039110000     -7.0371140000      1.1397370000
H                 11.1651050000     -6.9163460000      0.6395910000
H                 10.8275150000     -7.0782310000     -1.0721450000
H                  9.7689630000     -9.3195720000     -0.6430070000
H                 10.1367930000     -9.1613310000      1.0642290000
H                 12.3767370000     -9.6485320000      1.9073430000
H                 11.6753230000     -9.5532600000     -2.3189460000
H                 13.9128480000    -10.5393640000     -2.6997410000
H                 14.5811650000    -10.6277950000      1.5398560000
H                 16.5948970000    -10.7856260000      0.8313880000
H                 15.5310010000    -13.4586780000     -0.0149150000
H                 15.5603790000    -12.7535510000      1.5938250000
H                 18.1350920000    -10.6910320000     -1.1086360000
H                 17.8833260000    -12.4074440000     -1.3914810000
H                 19.4223060000    -11.0474170000      0.8543750000
H                 19.8844250000    -12.4197330000     -0.1300480000
H                 18.2548940000    -12.3482050000      2.4070240000
H                 19.3989900000    -13.5580830000      1.8675530000
H                 17.1117990000    -14.5118690000      1.8469510000
H                 17.7011990000    -14.3893650000      0.2022830000





