%chk=077-an.chk
%nproc=8
%mem=30GB
#P UB3LYP/6-311++G(d,p) nosym opt freq SCRF=(PCM,Solvent=n,n-DiMethylFormamide)

Reduced

-2 1
C                  0.3048010000      1.7993730000     -1.8895830000
C                 -1.0267030000      2.0776730000     -2.3815320000
C                 -1.9488270000      1.1005740000     -2.6658410000
C                 -1.6832870000     -0.3127650000     -2.5068070000
C                 -0.3954720000     -0.6015430000     -2.0428510000
C                  0.6036410000      0.3868430000     -1.7419520000
O                  1.1022450000      2.7649380000     -1.6133980000
O                 -2.6009790000     -1.2068170000     -2.7919450000
C                  3.0631860000      0.8334560000     -1.0467090000
C                  3.9172760000      1.1247610000     -2.1135350000
C                  3.3983930000      1.2616790000      0.2513700000
C                  4.5734630000      1.9989260000      0.4303750000
C                  5.0882480000      1.8574430000     -1.9195420000
C                  5.4170210000      2.3012400000     -0.6401590000
H                 -1.2844720000      3.1262210000     -2.5145090000
H                 -2.9354310000      1.3851960000     -3.0302410000
H                 -0.1170190000     -1.6417470000     -1.9065820000
H                  3.6563240000      0.7822340000     -3.1099450000
H                  4.8329150000      2.3418050000      1.4278070000
H                  5.7362690000      2.0788450000     -2.7609970000
H                  6.3228970000      2.8738480000     -0.4725380000
C                  1.8880140000     -0.0921090000     -1.2864030000
O                  2.1368290000     -1.3074080000     -1.0904210000
C                  2.5043570000      0.9519140000      1.4288460000
H                  2.4312710000     -0.1259630000      1.6014140000
H                  1.4878710000      1.3179480000      1.2573690000
H                  2.8841030000      1.4149940000      2.3419170000





