%chk=041-rad.chk
%nproc=8
%mem=30GB
#P UB3LYP/6-311++G(d,p) nosym opt freq SCF=YQC Int=Acc2E=11

Radical

-1 2
C                 16.17496800    2.89256400    0.71862100
 C                 15.55017300    1.81189700    1.44477500
 C                 15.95959400    1.40288400    2.68673000
 C                 17.08126900    2.05497300    3.34899500
 C                 17.72392600    3.14967000    2.62973800
 C                 17.29690900    3.55091700    1.38014300
 O                 15.76376400    3.24181100   -0.42848500
 O                 17.47422100    1.68046700    4.49547600
 C                 17.96690800    4.68404200    0.64329500
 C                 18.88414300    3.83022500    3.31508200
 H                 14.71789400    1.32422100    0.94522400
 H                 17.91335900    5.62459300    1.20678200
 H                 17.47527800    4.82581300   -0.31994400
 H                 19.03186500    4.48342400    0.46894000
 H                 19.04911000    3.36988700    4.28967500
 H                 18.69858300    4.90242400    3.45826400
 H                 19.80760200    3.74793500    2.72739600
 C                 15.30722400    0.24859800    3.43018800
 C                 13.85925100    0.03632600    3.09978300
 C                 13.25456500   -1.03493900    2.56605500
 C                 11.76138500   -1.01455800    2.30429900
 C                 11.38655900   -0.93394100    0.80177400
 C                  9.90022700   -0.94425800    0.58151000
 C                  9.11878800    0.01415400    0.06262800
 C                  7.62158600   -0.20064400   -0.04143100
 C                  6.78733400    0.68294300    0.91992000
 C                  5.30811900    0.48258800    0.74442300
 C                  4.41169400    0.01101900    1.62290200
 C                  2.95251800   -0.10839000    1.23152200
 C                 13.96494000   -2.30954000    2.17760200
 C                  9.62278300    1.33930600   -0.45554400
 C                  4.74667900   -0.43125400    3.02720300
 C                  2.01218800    0.86618200    1.98469600
 C                  0.57139500    0.68174900    1.59736600
 C                 -0.25446800    1.54360300    0.98681400
 C                 -1.68035800    1.13706700    0.67208500
 C                 -1.97200100    0.96083000   -0.83963500
 C                 -3.41114000    0.61602700   -1.10492300
 C                 -3.92595100   -0.50301300   -1.63432800
 C                 -5.42617100   -0.64589000   -1.79665300
 C                 -6.06934900   -1.69876300   -0.85899500
 C                 -7.54804200   -1.84009800   -1.09160300
 C                 -8.56162900   -1.56936800   -0.25682600
 C                 -9.99384400   -1.77205700   -0.70961300
 C                -10.79337900   -0.45772700   -0.89617100
 C                -12.22210800   -0.71171300   -1.28985500
 C                -12.85286300   -0.38635500   -2.42729500
 C                  0.12490300    2.94657400    0.57888200
 C                 -3.10669800   -1.67664700   -2.11364800
 C                 -8.39337000   -1.07130500    1.15809700
 C                -12.21582100    0.36006100   -3.57416300
 C                -14.30929800   -0.75828700   -2.62154200
 C                -14.54801200   -1.85691300   -3.68808800
 C                -16.00963900   -2.14948100   -3.88554000
 C                -16.68226300   -3.28310200   -3.64071600
 C                -16.05500700   -4.55290200   -3.11871100
 C                -18.17391900   -3.35284500   -3.90017200
 C                -19.03809700   -3.45251000   -2.61798300
 C                -20.50433500   -3.57548400   -2.92751800
 C                -21.49757200   -2.72734300   -2.62899300
 C                -21.32816000   -1.43014400   -1.87852200
 C                -22.91978300   -3.02734900   -3.03726400
 H                 15.41271300    0.46508400    4.49984900
 H                 15.89390100   -0.66314200    3.27010800
 H                 13.22613500    0.89565300    3.32221600
 H                 11.31363700   -0.15776600    2.81673800
 H                 11.29516100   -1.91502400    2.73104700
 H                 11.82381400   -1.79392000    0.27949000
 H                 11.85367000   -0.04460300    0.37500000
 H                  9.40314700   -1.85782600    0.91210800
 H                  7.38607200   -1.25000700    0.16053300
 H                  7.29343400    0.00221400   -1.07061900
 H                  7.02040000    1.73708500    0.72693400
 H                  7.10423400    0.48332000    1.94585400
 H                  4.93434400    0.75041000   -0.24464400
 H                  2.60798100   -1.13518500    1.41797300
 H                  2.84574700    0.06690600    0.15697200
 H                 15.03373000   -2.26924600    2.38515200
 H                 13.84541800   -2.52562700    1.10954000
 H                 13.54677600   -3.16767300    2.72058000
 H                 10.70647400    1.43232000   -0.40588700
 H                  9.19689500    2.17659800    0.10826500
 H                  9.32119700    1.48047100   -1.50073400
 H                  5.81896600   -0.45618200    3.21766600
 H                  4.34847000   -1.43524000    3.21597900
 H                  4.29482300    0.23047100    3.77477800
 H                  2.35156700    1.88871300    1.80519600
 H                  2.10899900    0.69216400    3.06331700
 H                  0.16408000   -0.29940000    1.84413800
 H                 -2.37078100    1.89213400    1.07273400
 H                 -1.91509400    0.19803900    1.18179200
 H                 -1.29413900    0.20437000   -1.24093300
 H                 -1.73560900    1.89659800   -1.36054100
 H                 -4.11863400    1.39100000   -0.80794800
 H                 -5.65502900   -0.92050600   -2.83555200
 H                 -5.90798000    0.31936500   -1.61586100
 H                 -5.84711200   -1.42833900    0.17559100
 H                 -5.59376600   -2.67139200   -1.03428400
 H                 -7.81185800   -2.20324200   -2.08544600
 H                -10.52141000   -2.39817600    0.02295600
 H                -10.00529600   -2.32170400   -1.65524700
 H                -10.27671300    0.16511600   -1.62966000
 H                -10.78549600    0.10242300    0.04676200
 H                -12.80529300   -1.24459800   -0.53814100
 H                  1.14154700    3.21256400    0.86572900
 H                 -0.55533800    3.67430700    1.03748300
 H                  0.04245200    3.08214100   -0.50490000
 H                 -2.03366500   -1.51319100   -2.02092600
 H                 -3.32457500   -1.88876500   -3.16718300
 H                 -3.35093700   -2.58669000   -1.55521700
 H                 -7.34960200   -0.97807000    1.45583300
 H                 -8.88445700   -1.75289200    1.86284100
 H                 -8.86364000   -0.09140700    1.29293100
 H                -11.18161100    0.64088300   -3.37817700
 H                -12.77769400    1.27630100   -3.79129800
 H                -12.22715800   -0.23740300   -4.49199300
 H                -14.87704500    0.13635500   -2.91171100
 H                -14.73039700   -1.10026700   -1.67169800
 H                -13.99205800   -2.75163400   -3.39941000
 H                -14.12603000   -1.52469000   -4.64440800
 H                -16.58612900   -1.30788000   -4.27084900
 H                -14.97681700   -4.47231000   -2.98486400
 H                -16.24705100   -5.38376100   -3.80797100
 H                -16.48663000   -4.84171800   -2.15444900
 H                -18.39199800   -4.22310200   -4.53419900
 H                -18.49014700   -2.47011800   -4.46337900
 H                -18.83096800   -2.58556800   -1.98658100
 H                -18.72706500   -4.33402300   -2.04417700
 H                -20.77279600   -4.47621000   -3.48000500
 H                -20.29381300   -1.21834700   -1.60969500
 H                -21.92108800   -1.43969900   -0.95610700
 H                -21.69969200   -0.59023800   -2.47735000
 H                -22.99646400   -3.97385900   -3.57624700
 H                -23.31943600   -2.23423700   -3.68065800
 H                -23.57738300   -3.07926800   -2.16106900































































