%chk=093.chk
%nproc=32
%mem=825GB
#P UB3LYP/6-311++G(d,p) nosym opt freq Int=Acc2E=11 SCRF=(PCM,Solvent=n,n-DiMethylFormamide)

Oxidized

0 1
 C                 17.29420100    1.57071100    0.13064500
 C                 16.61472000    0.42753400    0.82038000
 C                 16.12550500    0.58691800    2.06797900
 C                 16.17868000    1.92677500    2.72022000
 C                 16.77745000    3.09866000    1.98560300
 C                 17.28818400    2.92057400    0.73878600
 O                 17.87568300    1.38272400   -0.93296100
 O                 15.72569000    2.09416100    3.84115500
 C                 17.34910300    4.36931000   -1.16281000
 C                 17.06210000    5.51177300    2.21070900
 C                 16.58288600   -0.85768400    0.04650900
 H                 18.02989700    5.11964800   -1.56046800
 H                 16.37439100    4.82435400   -0.96441700
 H                 17.24548600    3.54904000   -1.87226700
 H                 16.83819800    6.19416900    3.02792300
 H                 16.43916400    5.75100900    1.34820000
 H                 18.11476900    5.57005100    1.94370300
 C                 15.47409500   -0.51343400    2.88102500
 C                 13.97518000   -0.55871900    2.67447900
 C                 13.21111900   -1.62096800    2.38146800
 C                 11.71376100   -1.44839200    2.21664400
 C                 11.21719700   -1.60763700    0.75686200
 C                  9.71915700   -1.51256200    0.65477200
 C                  8.97563700   -0.57154700    0.05308500
 C                  7.46242000   -0.66159700    0.08768400
 C                  6.78500700    0.40265000    0.98802100
 C                  5.28354900    0.33306100    0.92174400
 C                  4.41420900    0.01331300    1.89257500
 C                  2.92527400    0.00551000    1.60794800
 C                 13.72321700   -3.03037600    2.21466500
 C                  9.53648300    0.61375600   -0.69484700
 C                  4.80791500   -0.35840000    3.30218800
 C                  2.13405900    1.11971700    2.33885700
 C                  0.65510400    1.03085100    2.07821200
 C                 -0.14376800    1.90809200    1.45139200
 C                 -1.62140400    1.60881900    1.28983400
 C                 -2.05990700    1.33229700   -0.17080100
 C                 -3.54389500    1.11237500   -0.28369800
 C                 -4.20555500    0.00590700   -0.65596600
 C                 -5.72159000    0.00024500   -0.68064800
 C                 -6.37028600   -0.89415800    0.40643200
 C                 -7.87134700   -0.91093800    0.30678300
 C                 -8.77754900   -0.45050900    1.18286400
 C                -10.25788400   -0.55538500    0.87161700
 C                -10.94346800    0.80417200    0.58184500
 C                -12.42574900    0.65934400    0.36917000
 C                -13.14497500    0.89534700   -0.73882400
 C                  0.31591000    3.22857700    0.88186700
 C                 -3.54537000   -1.28393800   -1.07980500
 C                 -8.43905100    0.17851800    2.51292900
 C                -12.57052500    1.40056300   -2.04034600
 C                -14.64440500    0.67021100   -0.73296400
 C                -15.11322000   -0.52472600   -1.60081800
 C                -16.61160400   -0.65826600   -1.61901300
 C                -17.37164500   -1.67023400   -1.17317500
 C                -16.83134700   -2.92807800   -0.53614400
 C                -18.88135800   -1.59502900   -1.28850900
 C                -19.49445800   -2.60347100   -2.29250200
 C                -20.99724300   -2.53635600   -2.31791000
 C                -21.80576600   -2.18444100   -3.32922900
 C                -21.32730400   -1.76879100   -4.69986200
 C                -23.30942800   -2.18419200   -3.13777200
 H                 15.67956000   -0.31053500    3.93632200
 H                 15.94036700   -1.46787600    2.64383800
 H                 13.47682100    0.40099900    2.79665200
 H                 11.41599800   -0.46012400    2.57865900
 H                 11.19445300   -2.18558700    2.84272800
 H                 11.53186900   -2.58730400    0.37836600
 H                 11.71179600   -0.85921100    0.13375400
 H                  9.18431300   -2.32014200    1.15562000
 H                  7.16203900   -1.65359100    0.43799400
 H                  7.06962400   -0.55328600   -0.93202700
 H                  7.10164400    1.40019100    0.66078400
 H                  7.14891300    0.28318600    2.01100900
 H                  4.86724800    0.56435600   -0.05925800
 H                  2.50597700   -0.96572200    1.90321900
 H                  2.75770400    0.10836900    0.53167000
 H                 14.79727400   -3.12169300    2.37402400
 H                 13.49866300   -3.41876300    1.21598200
 H                 13.22393900   -3.69698300    2.92700500
 H                 10.62574800    0.63132200   -0.71312800
 H                  9.19734700    1.55635900   -0.25258500
 H                  9.18042200    0.61147100   -1.73172800
 H                  5.88533600   -0.45848600    3.43050500
 H                  4.34405800   -1.30985900    3.58621300
 H                  4.45601400    0.38668600    4.02392500
 H                  2.53780100    2.09057000    2.04262700
 H                  2.30475700    1.02637500    3.41804700
 H                  0.19029700    0.11662900    2.44896300
 H                 -2.20538200    2.45757100    1.67043300
 H                 -1.88830800    0.74236900    1.90218600
 H                 -1.49574500    0.47824100   -0.55224700
 H                 -1.78527400    2.19203700   -0.79355100
 H                 -4.14603900    1.97886100   -0.00812400
 H                 -6.06689700   -0.34555100   -1.66420000
 H                 -6.09319300    1.02176300   -0.55668600
 H                 -6.03596700   -0.55206100    1.38846800
 H                 -6.00047100   -1.91988100    0.29028900
 H                 -8.25388900   -1.34992900   -0.61529700
 H                -10.77264000   -1.02848800    1.71852900
 H                -10.40547300   -1.20952300    0.00715800
 H                -10.45588200    1.26744300   -0.27887400
 H                -10.77734100    1.47476400    1.43336600
 H                -12.96975700    0.30277200    1.24451300
 H                  1.37211100    3.42664000    1.06162000
 H                 -0.26170600    4.05194900    1.31806200
 H                  0.15020400    3.27235400   -0.19972000
 H                 -2.45766300   -1.22222100   -1.09383200
 H                 -3.88094100   -1.57041900   -2.08337900
 H                 -3.82190400   -2.10769400   -0.41333500
 H                 -7.36834200    0.20568100    2.71263900
 H                 -8.92135000   -0.37389300    3.32787500
 H                 -8.81286400    1.20611600    2.57109500
 H                -11.49824500    1.58710900   -1.98990900
 H                -13.06291300    2.33450600   -2.33567000
 H                -12.74485100    0.68762000   -2.85306600
 H                -15.14734000    1.57727600   -1.09430600
 H                -14.98566800    0.50836400    0.29385900
 H                -14.63171500   -1.43613500   -1.23910300
 H                -14.76387300   -0.37663300   -2.62975900
 H                -17.13158700    0.20035900   -2.04528400
 H                -15.75596200   -2.89009000   -0.36471000
 H                -17.03689900   -3.80771700   -1.15575000
 H                -17.32155500   -3.10530500    0.42791300
 H                -19.17553400   -0.58444500   -1.58731600
 H                -19.32806500   -1.77648700   -0.30164200
 H                -19.19580400   -3.61862400   -2.00459200
 H                -19.06654800   -2.42425600   -3.28157400
 H                -21.47283700   -2.80130700   -1.37298300
 H                -20.24526100   -1.65333000   -4.75612100
 H                -21.78459900   -0.81539000   -4.98783400
 H                -21.62287300   -2.49823200   -5.46190800
 H                -23.54051500   -2.34115200   -2.07939700
 C                -24.05841700   -3.25228600   -3.97404200
 H                -23.71015100   -1.19803100   -3.40675200
 C                -25.53082400   -3.28449100   -3.66595100
 C                -26.56282100   -3.00853200   -4.47677200
 C                -27.98485100   -3.09057600   -3.97463100
 C                -26.43948300   -2.60382500   -5.92477000
 H                -23.62264200   -4.23213500   -3.73864400
 H                -23.88218500   -3.08183600   -5.03750600
 H                -25.76861600   -3.55935700   -2.63796200
 H                -28.02910100   -3.38710800   -2.92456300
 H                -28.56521300   -3.81350600   -4.56027100
 H                -28.49358700   -2.12508700   -4.08098500
 H                -25.40792700   -2.52971300   -6.26775700
 H                -26.92218900   -1.63383800   -6.09138300
 H                -26.95995500   -3.32271500   -6.56850300
 O                 17.94338900    3.91452400    0.07193800
 O                 16.73037200    4.20660100    2.72900800
 H                 17.58044500   -1.30773000    0.00948100
 H                 16.28794900   -0.66923200   -0.98757900
 H                 15.89403000   -1.57764400    0.48123300










































