%chk=069.chk
%nproc=8
%mem=30GB
#P UB3LYP/6-311++G(d,p) nosym opt freq

Oxidized

0 1
C          0.96259        1.64227       -0.36932
C         -0.24172        1.09738        0.28394
C         -0.34774       -0.19823        0.57136
C          0.73566       -1.13468        0.23855
C          1.89877       -0.61700       -0.52612
C          1.98665        0.68817       -0.84547
O          1.07489        2.85775       -0.44301
O          0.63647       -2.30839        0.57108
S          3.22635        1.30574       -1.89335
C          4.43362        2.01043       -0.79061
C          4.25094        3.30921       -0.30477
C          5.59554        1.29845       -0.48066
C          6.55158        1.86869        0.36036
C          5.21080        3.87323        0.53637
C          6.35637        3.15142        0.87258
O          2.69454        2.39529       -2.69355
O          3.86684        0.21923       -2.61450
H         -1.01667        1.80997        0.54533
H         -1.21448       -0.61084        1.07542
H          3.37548        3.89405       -0.58078
H          5.77095        0.30367       -0.88561
H          7.45246        1.31313        0.61027
H          5.07051        4.88051        0.92138
H          7.10567        3.59430        1.52437
C          3.00645       -1.56868       -0.78871
C          2.79132       -2.71308       -1.71722
C          1.72996       -2.75805       -2.63082
C          3.71309       -3.76839       -1.68037
C          1.58774       -3.85719       -3.48252
C          2.50259       -4.90832       -3.43120
C          3.56640       -4.86381       -2.53262
O          4.06190       -1.41934       -0.17890
H          1.00874       -1.95206       -2.71320
H          4.55022       -3.74283       -0.98516
H          0.76482       -3.89273       -4.19255
H          2.38987       -5.76096       -4.09650
H          4.28412       -5.67954       -2.49567










