%chk=329-an.chk
%nproc=8
%mem=30GB
#P UB3LYP/6-311++G(d,p) nosym opt freq SCRF=(PCM,Solvent=n,n-DiMethylFormamide)

Reduced

-2 1
C                 -0.6483900000      2.6786130000     -0.9733680000
C                 -1.7191670000      2.0615030000     -0.3763820000
C                 -1.5911720000      0.7488190000      0.1682360000
C                  0.6367190000      2.0428780000     -1.0701110000
C                  0.7560940000      0.6971530000     -0.5311960000
C                 -0.3736920000      0.0990760000      0.0780820000
C                  1.7495330000      2.6386400000     -1.6607300000
C                  3.0005740000      1.9867020000     -1.7665230000
C                  3.1153880000      0.6287190000     -1.2197620000
C                  2.0066140000      0.0456170000     -0.6356560000
C                  4.1196860000      2.6144180000     -2.3766260000
C                  5.3157690000      1.8449260000     -2.4065190000
C                  5.4665310000      0.5531330000     -1.8972750000
C                  4.3909230000     -0.1363780000     -1.2772480000
O                  4.1640940000      3.8182320000     -2.9048170000
O                  4.4801910000     -1.3170850000     -0.8005270000
O                  6.3567790000      2.5109090000     -3.0065010000
H                 -0.7572260000      3.6794490000     -1.3857850000
H                 -2.6757540000      2.5770360000     -0.3083200000
H                 -2.4431480000      0.2725840000      0.6463890000
H                 -0.2627320000     -0.9053030000      0.4827560000
H                  1.6754230000      3.6409010000     -2.0732520000
H                  2.1292910000     -0.9599400000     -0.2415230000
H                  6.4279570000      0.0519080000     -1.9726180000
H                  5.8820190000      3.3597610000     -3.2269820000


