%chk=164-rad-new-pro.chk
%nproc=8
%mem=30GB
#P UB3LYP/6-311++G(d,p) nosym  opt freq

Radical

-3 2
N                  3.62895299   -1.41016847   -2.40183153
 C                  2.97082699   -0.17593847   -2.15954753
 C                  2.29204699    0.07618253   -0.96570953
 C                  3.06881399    0.81677053   -3.13778253
 C                  1.66376299    1.31309553   -0.74572753
 C                  2.48159399    2.05381053   -2.90398653
 C                  1.78289199    2.32182353   -1.73211753
 S                  1.16322999    4.03758353   -1.51476253
 O                 -0.08205401    3.86184653   -0.70323953
 O                  2.25086999    4.72836653   -0.78862053
 O                  0.92537899    4.52760053   -2.88930953
 N                  0.89707599    1.59373153    0.39765447
 C                  0.64407499    0.86078653    1.50750947
 N                  1.25353199   -0.33694647    1.69408547
 C                  0.90586699   -0.92752347    2.82019147
 N                  0.07953299   -0.53073347    3.74567547
 C                 -0.48957101    0.68881253    3.46298947
 N                 -0.23380201    1.40628353    2.37332247
 Cl                 1.67868799   -2.50447847    3.10659547
 N                 -1.35817501    1.10191253    4.41413047
 C                 -2.18928201    2.24338153    4.54005547
 C                 -2.21785101    3.30401353    3.63165547
 C                 -3.01864601    2.26579253    5.67274847
 C                 -3.08373201    4.37292653    3.87915647
 C                 -3.87175301    3.33377353    5.90032047
 C                 -3.90798201    4.40010853    4.99894147
 S                 -4.96642201    3.32372353    7.37097547
 O                 -4.52562401    2.13434553    8.14814347
 O                 -4.70017801    4.62430453    8.03779647
 O                 -6.33675601    3.20758953    6.80773347
 H                  4.55042299   -1.37914647   -2.84198253
 H                  2.26488899   -0.66162547   -0.18106953
 H                  3.59180499    0.61552853   -4.06620753
 H                  2.53754599    2.84103353   -3.64594153
 H                  0.36821299    2.47940253    0.32448747
 H                 -1.43933801    0.43454053    5.16844847
 H                 -1.58338701    3.29509753    2.75890147
 H                 -3.00902201    1.45546253    6.39514447
 H                 -3.10259001    5.19713753    3.17363647
 H                 -4.57129401    5.23559553    5.18650747
 C                  3.21521599   -2.67325147   -2.12042453
 C                  4.06979099   -3.79975647   -2.31085453
 C                  1.88234899   -2.91235047   -1.66233353
 C                  1.44708999   -4.16415347   -1.36184253
 C                  3.60078199   -5.12801747   -1.97403353
 C                  2.28792399   -5.30650947   -1.48500453
 C                  4.47235499   -6.29071847   -2.10439253
 C                  5.85100099   -6.07674847   -2.60927953
 C                  6.29567699   -4.79526247   -2.96392253
 C                  5.40818099   -3.60931147   -2.84253253
 C                  6.71537399   -7.17337347   -2.73727753
 C                  8.00668799   -6.99500947   -3.21054453
 C                  8.45145599   -5.71464747   -3.56540353
 C                  7.60206599   -4.62493747   -3.44441853
 O                  4.11399799   -7.44781047   -1.80884353
 O                  5.85211099   -2.49922447   -3.20254653
 N                  1.76797899   -6.52473747   -1.16219053
 H                  1.20617199   -2.07529347   -1.56735053
 H                  6.34438199   -8.15112547   -2.45633253
 H                  8.67234899   -7.84645447   -3.30527153
 H                  9.46214399   -5.57457647   -3.93410553
 H                  7.92003399   -3.62494247   -3.71131653
 H                  2.40670299   -7.31312447   -1.16898553
 H                  0.90875799   -6.55954147   -0.63955653
 S                 -0.22774934   -4.39772964   -0.80618490
 O                 -0.22027506   -4.92003297    0.78001917
 O                 -0.93384078   -5.47329091   -1.70852357
 O                 -1.05621247   -2.95159160   -0.91217368
 H                  2.31087444   -6.60070640   -0.21128622








































