%chk=308-an.chk
%nproc=8
%mem=30GB
#P UB3LYP/6-311++G(d,p) nosym opt freq

Reduced

-2 1
C         -4.07159        3.59682        1.53185
C         -4.56075        3.82205        0.24840
C         -3.97127        3.17920       -0.83681
C         -2.89198        2.31081       -0.63694
C         -2.38590        2.07236        0.65229
C         -2.98876        2.72556        1.73217
C         -2.50748        2.52012        3.10965
C         -1.37402        1.60761        3.31616
C         -0.77713        0.96901        2.30459
C         -1.23873        1.15407        0.89806
O         -3.02319        3.08362        4.06682
O         -0.66309        0.54945        0.00181
H         -4.53545        4.10164        2.37842
H         -4.36407        3.36489       -1.83315
O         -2.34513        1.70216       -1.73051
C          0.37895        0.03742        2.50912
H         -5.39964        4.49743        0.09605
H         -1.05337        1.48640        4.34524
H         -2.80615        1.97054       -2.54066
H          0.65574       -0.04334        3.56587
H          1.25965        0.39210        1.96356
H          0.12930       -0.96845        2.15563







