%chk=171-rad.chk
%nproc=8
%mem=30GB
#P UB3LYP/6-311++G(d,p) nosym opt freq

Radical

-1 2
C         -1.26679        1.92462       -4.24084
C         -1.27842        0.53012       -4.29998
C         -1.05323       -0.21748       -3.14517
C         -1.03632        2.57412       -3.02044
C         -0.81199        1.82967       -1.87092
C         -0.81633        0.42944       -1.93125
C         -1.00432        4.04420       -2.96377
C         -0.54281        2.51032       -0.59479
C         -0.99667        4.73353       -1.64325
C         -0.76919        3.97744       -0.47646
C         -1.18569        6.13662       -1.57334
C         -1.18636        6.72741       -0.30505
C         -0.96020        5.97765        0.85235
C         -0.72328        4.60064        0.79625
O         -0.96819        4.67543       -4.01686
O         -0.12000        1.85136        0.35224
H         -1.43687        2.50212       -5.14796
H         -1.45928        0.02815       -5.24793
H         -1.05808       -1.30434       -3.18986
H         -0.63497       -0.16091       -1.03477
H         -1.01787        6.49408        1.80683
H         -1.40521        7.78523       -0.18571
N         -1.52223        6.89200       -2.71258
C         -1.06935        8.26976       -2.80075
H         -1.29766        6.36225       -3.56820
H          0.00715        8.34898       -2.61619
H         -1.61175        8.91734       -2.10530
H         -1.26450        8.64628       -3.81009
N         -0.60033        3.84774        1.98234
C          0.15868        4.42129        3.09307
C          0.35914        3.38250        4.20353
O          1.18900        3.90020        5.24053
H         -0.27931        2.89490        1.75048
H         -0.35901        5.28570        3.52413
H          1.14013        4.76965        2.74751
H          0.82212        2.46872        3.81526
H         -0.60407        3.10543        4.64434
H          2.09139        3.96681        4.88333






