%chk=278-rad.chk
%nproc=8
%mem=30GB
#P UB3LYP/6-311++G(d,p) nosym opt freq

Radical

-1 2
C          0.02077        4.00029        0.16562
C         -1.05438        3.53728        0.92753
C         -1.22394        2.16843        1.13938
C          0.93867        3.09187       -0.39236
C          0.76829        1.71085       -0.17909
C         -0.31902        1.25687        0.59020
C          2.08515        3.56501       -1.20338
C          3.04815        2.59052       -1.78173
C          2.88881        1.25666       -1.58335
C          1.73892        0.75627       -0.77055
O          2.24403        4.76091       -1.40082
O          1.59463       -0.44436       -0.59027
H          0.13419        5.06632        0.01328
H         -1.75724        4.24113        1.35433
H         -2.05819        1.81275        1.73021
H         -0.46953        0.19927        0.76689
S          4.42619        3.23576       -2.76224
C          3.86632        0.26838       -2.18255
H          3.87121        0.36763       -3.28853
H          3.60461       -0.78142       -1.93847
H          4.88771        0.46000       -1.79308
C          5.48182        3.54886       -1.30784
C          6.75771        4.25141       -1.74665
H          5.75288        2.58671       -0.82413
H          4.95205        4.21085       -0.58997
H          7.31708        3.61590       -2.46564
H          7.40136        4.44378       -0.86249
H          6.51337        5.22164       -2.22931








