%chk=169-rad.chk
%nproc=8
%mem=30GB
#P UB3LYP/6-311++G(d,p) nosym opt freq

Radical

-1 2
N    -3.2778720654    1.6699805341    0.2851299370
C    -2.7658669351    0.3451520807    0.2229941616
C    -3.6098054892   -0.7585068961    0.2208564357
C    -3.1128742827   -2.0449107846    0.1605428140
C    -1.7459439322   -2.2421825108    0.1008864491
N    -1.2239928320   -3.5492553679    0.0389418770
C    -0.9227539566   -1.1326547992    0.1040196771
C     0.5284222904   -1.3102984789    0.0416936752
O     1.0244203679   -2.4575065804   -0.0141564399
C     1.4250712994   -0.1380664991    0.0439518374
C     2.8088364839   -0.3051301890   -0.0154106445
N     3.2987605120   -1.6319081881   -0.0767451044
C     3.6448982903    0.8004133422   -0.0129134835
C     3.0959157873    2.0466045379    0.0481569068
C     1.7434216197    2.2299221414    0.1068153257
N     1.1563964335    3.5217235299    0.1708171238
C     0.9036720857    1.1370222783    0.1048638380
C    -0.5399361116    1.3344925618    0.1675236502
O    -1.0266378205    2.5146664282    0.2240663412
C    -1.3967677951    0.1588352009    0.1636009121
H    -3.1674259528    2.1850936002    1.1801900392
H    -3.7312737128    2.0500486125   -0.5595224619
H    -4.6731200385   -0.5883448867    0.2677852380
H    -3.7392261965   -2.9270009109    0.1569656162
H    -1.3946341589   -4.2162057532    0.8495479141
H    -0.6692903868   -3.9321804244   -0.7536068613
H     3.7410401452   -1.9551110520   -0.9584740059
H     3.2437395446   -2.3066839415    0.7085181099
H     4.7273522337    0.6208584443   -0.0608952980
H     3.7629444789    2.9141676806    0.0496874691
H     0.8704822340    3.9858355925   -0.7119428219
H     1.0220478601    3.9811306973    1.0921196697


