%chk=181-an.chk
%nproc=8
%mem=30GB
#P UB3LYP/6-311++G(d,p) nosym opt freq SCF=YQC

Reduced

-2 1
N    -2.5300193295   -2.2759010243    0.3913090727
C    -2.3250943167   -0.9091539810    0.1489649672
C    -3.4251271505   -0.0840784698   -0.0056786009
C    -3.2144936834    1.2531729732   -0.2427158580
C    -1.9408987886    1.7669373231   -0.3256441431
O    -1.7932893597    3.1217366506   -0.5662408768
C    -0.8554378289    0.9305360934   -0.1690810208
C     0.5061511627    1.4453200599   -0.2515993206
O     0.6804341428    2.6715031320   -0.4690758712
C     1.6802652232    0.5858193884   -0.0903160479
C     2.9744405788    1.0829771167   -0.1701550324
C     4.0570674672    0.2401253467   -0.0124693570
C     3.9077919349   -1.1114004621    0.2275322086
C     2.6154762599   -1.5930788411    0.3046231814
C     1.5102035676   -0.7627247455    0.1490133279
C     0.1399599518   -1.2864220879    0.2330611349
O    -0.0032538025   -2.5025450547    0.4489603553
C    -1.0269579196   -0.4351644260    0.0732968229
H    -3.0743995407   -2.8222746191   -0.3207924028
H    -2.1887478436   -2.8059816750    1.2213259023
H    -4.4199162007   -0.4874795735    0.0594714163
H    -4.0718665171    1.8936444242   -0.3627872674
H    -2.5899522980    3.7326183067   -0.6806014499
H     3.1240671885    2.1516737017   -0.3597127354
H     5.0869667608    0.5996563091   -0.0695685003
H     4.7641696816   -1.7693080264    0.3506946817
H     2.4124606597   -2.6302078394    0.4881854131


