%chk=216-rad.chk
%nproc=8
%mem=30GB
#P UB3LYP/6-311++G(d,p) nosym opt freq

Radical

-1 2
C          5.13280       -2.12978        0.39275
C          5.86659       -1.45760       -0.58673
C          5.19494       -0.85286       -1.65317
C          3.73431       -2.19321        0.30522
C          3.07177       -1.58274       -0.76057
C          3.80073       -0.90410       -1.74577
C          2.97185       -2.90959        1.34755
C          1.50045       -2.98046        1.24768
C          0.83791       -2.37015        0.18159
C          1.60012       -1.64998       -0.85839
C          0.77236       -3.66510        2.22963
C         -0.56000       -2.43939        0.09034
C         -1.29257       -3.11924        1.06520
O          3.55422       -3.43879        2.28599
O          1.01770       -1.11706       -1.79469
H          5.65356       -2.60585        1.22317
H          6.95180       -1.41851       -0.51365
S          6.12268        0.02172       -2.89282
H         -2.37759       -3.16529        0.99057
H          3.28525       -0.42373       -2.57726
H          1.28902       -4.14424        3.06101
H         -1.08102       -1.96312       -0.73978
C         -0.62079       -3.72532        2.13121
S         -1.55795       -4.60771        3.35840
O         -0.67002       -5.57429        3.97139
O         -2.25063       -3.60645        4.14212
O         -2.65863       -5.43120        2.48415
C         -3.55368       -6.26261        3.19757
H         -3.00751       -7.04769        3.72848
H         -4.23425       -6.73356        2.48340
H         -4.14368       -5.67304        3.90530
O          5.28773        1.10546       -3.36908
O          6.65286       -0.98355       -3.78984
O          7.36265        0.68006       -2.06628
C          8.28672        1.45562       -2.80530
H          7.78871        2.31859       -3.25668
H          8.76197        0.84933       -3.58194
H          9.06057        1.81708       -2.12302








