%chk=031-an.chk
%nproc=8
%mem=30GB
#P UB3LYP/genecp nosym opt freq SCF=YQC 

Reduced

-2 1
I                 -3.3403800000     -1.0821470000     -0.1531630000
C                 -1.3215030000     -0.3831830000     -0.0541410000
C                 -0.9759640000      0.9709450000     -0.0293740000
I                 -2.4134930000      2.5541460000     -0.0563830000
C                  0.3751480000      1.4704700000      0.0298980000
O                  0.6892010000      2.7026780000      0.0615020000
C                  1.3214980000      0.3831880000      0.0542220000
C                  0.9759560000     -0.9709510000      0.0294550000
I                  2.4135040000     -2.5541410000      0.0562170000
C                 -0.3751490000     -1.4704760000     -0.0296750000
O                 -0.6892100000     -2.7026740000     -0.0615540000
I                  3.3403890000      1.0821460000      0.1529960000

C O 0
6-311++G(d,p)
****
I 0
def2TZVP
****













