%chk=175.chk
%nproc=8
%mem=30GB
#P UB3LYP/6-311++G(d,p) nosym opt freq SCRF=(PCM,Solvent=n,n-DiMethylFormamide)

Oxidized

0 1
C                  4.4055450000     -0.1139980000     -0.0116060000
C                  2.9679950000      0.3243210000     -0.1138280000
C                  2.6333390000      1.6405610000     -0.4532080000
C                  1.3122110000      2.0518870000     -0.5448700000
C                  0.2741410000      1.1539660000     -0.2958110000
C                 -1.1341640000      1.6428000000     -0.4117950000
O                 -1.3696200000      2.8011140000     -0.7121240000
C                 -2.2265660000      0.6670410000     -0.1523410000
C                 -3.5563180000      1.0848070000     -0.2643950000
C                 -4.5906110000      0.1879610000     -0.0262570000
C                 -4.3053490000     -1.1340840000      0.3274580000
C                 -2.9868290000     -1.5573660000      0.4428190000
C                 -1.9396580000     -0.6618230000      0.2032490000
C                 -0.5379040000     -1.1495040000      0.3390590000
O                 -0.2958940000     -2.2932470000      0.6769760000
C                  0.5643040000     -0.1792670000      0.0504580000
C                  1.9087650000     -0.5549410000      0.1278890000
N                  2.3008210000     -1.9518800000      0.4704500000
O                  2.4198020000     -2.7317830000     -0.4585740000
O                  2.5682140000     -2.1758490000      1.6383920000
H                  5.0740070000      0.6974230000     -0.2990140000
H                  4.6052540000     -0.9703610000     -0.6610510000
H                  4.6499160000     -0.4162000000      1.0103310000
H                  3.4318940000      2.3473810000     -0.6489850000
H                  1.0589610000      3.0707100000     -0.8097120000
H                 -3.7538490000      2.1136350000     -0.5384770000
H                 -5.6203110000      0.5148770000     -0.1148020000
H                 -5.1139300000     -1.8317840000      0.5128060000
H                 -2.7441640000     -2.5763960000      0.7169630000


