%chk=085-an-PCM.chk
%nproc=8
%mem=30GB
#P UB3LYP/6-311++G(d,p) SCRF=(PCM,Solvent=n,n-DiMethylFormamide)

Reduced 

-2 1
C                 -3.5084840000      0.6739710000     -0.1517610000
O                 -2.7467730000     -0.4883190000     -0.3509250000
C                 -1.3899240000     -0.4334310000     -0.0366270000
C                 -0.7236300000      0.7633600000      0.1945860000
C                  0.6790850000      0.8637870000      0.4970510000
O                  1.2620630000      1.9912480000      0.7414090000
C                  1.3467690000     -0.4097220000      0.5110390000
C                  0.6812880000     -1.6089880000      0.2777790000
C                 -0.7198650000     -1.7219470000      0.0011970000
O                 -1.3146980000     -2.8395910000     -0.2091170000
O                  2.7088960000     -0.4883130000      0.8439530000
C                  3.5585520000      0.2553880000     -0.0168240000
H                 -4.5559720000      0.4190250000     -0.3417120000
H                 -3.2215140000      1.4857130000     -0.8352800000
H                 -3.4206400000      1.0562670000      0.8796960000
H                 -1.2546080000      1.7092010000      0.1810210000
H                  1.2503780000     -2.5346510000      0.3171100000
H                  3.5271860000     -0.1516110000     -1.0424210000
H                  3.2615010000      1.3081160000     -0.0291670000
H                  4.5803910000      0.1504960000      0.3707860000





