%chk=038-an.chk
%nproc=8
%mem=30GB
#P UB3LYP/6-311++G(d,p) nosym opt freq

Reduced

-2 1
C     2.9029261937    0.2536482327   -0.0672668098
C     1.4460406111    0.0940988000   -0.0113029258
C     0.9067028322   -0.8999198528    0.6721070524
C    -0.5552032820   -1.0391234508    0.7134593706
O    -1.0889754959   -1.9721839296    1.3538770861
C    -1.4466868838   -0.1132384864    0.0222486551
C    -0.9022307767    0.8774387954   -0.6585924900
C     0.5527157627    1.0131977370   -0.6977801183
O     1.0926144926    1.9534068400   -1.3430469640
C    -2.9321299719   -0.2489627851    0.0601918211
H     3.4189363474   -0.6408602187    0.3316415237
H     3.2761291461    1.1188463320    0.5341527162
H     3.2943449594    0.3977294225   -1.1064715960
H     1.5614929081   -1.5963081723    1.1914093590
H    -1.5313195916    1.5915656607   -1.1894404642
H    -3.2599074728   -0.9236281462    0.8721968508
H    -3.4338433884    0.7293259071    0.2519369065
H    -3.3016063903   -0.5950326854   -0.9293199733


