%chk=190-an.chk
%nproc=8
%mem=30GB
#P UB3LYP/6-311++G(d,p) nosym opt freq

Reduced

-3 1
O     1.3888800216   -2.7602088216   -0.4078664947
C     1.5013281122   -1.4055035108   -0.1839932082
C     2.7219648119   -0.7927524917   -0.0473907529
O     3.9190170395   -1.4779490100   -0.1227320918
C     2.8141187022    0.5834104784    0.1793561095
C     1.6313370504    1.2788812881    0.2568017953
C     0.3844767860    0.6956041996    0.1242035947
C    -0.8506851805    1.4594869753    0.2112013708
O    -0.8270394072    2.6961333387    0.4131721700
C    -2.1615934290    0.8076604492    0.0655129008
C    -3.3319367907    1.5312932352    0.1479199423
C    -4.5193589212    0.8663502528    0.0038319925
C    -4.6271214932   -0.4866418575   -0.2196158633
C    -3.4410139411   -1.1841894665   -0.2973011110
C    -2.2201666726   -0.5505812984   -0.1573003144
C    -0.9675897053   -1.3224542468   -0.2450707594
O    -1.0147024375   -2.5523664669   -0.4466522636
C     0.3226497399   -0.6623428466   -0.0986624902
S     4.3872225054    1.3399370335    0.3500087756
O     5.3281358297    1.1410148041   -1.0074535563
O     4.2603296658    2.7801847196    0.7153431959
O     5.1245791900    0.6687280024    1.4997065386
H     2.2008880515   -3.3304647372   -0.4761368794
H     3.9932093735   -2.4504975038   -0.2787828244
H     1.6896287227    2.3394489692    0.4311675708
H    -3.2504404685    2.5954205340    0.3235586836
H    -5.4343146259    1.4494718235    0.0710709696
H    -5.5889027181   -0.9937411361   -0.3312126406
H    -3.4328998112   -2.2633327098   -0.4726843598


