%chk=172-an.chk
%nproc=8
%mem=30GB
#P UB3LYP/6-311++G(d,p) nosym opt freq

Reduced

-2 1
C                 -1.3673760000      2.0357070000     -4.7058270000
C                 -1.3805700000      0.6869930000     -4.9929490000
C                 -1.2847940000     -0.2589200000     -3.9324510000
C                 -1.2668470000      2.5236320000     -3.3759940000
C                 -1.1698560000      1.5668760000     -2.3033440000
C                 -1.1799130000      0.1851820000     -2.6311370000
C                 -1.2488170000      3.9416500000     -3.1379580000
C                 -1.0488340000      1.9709960000     -0.9286340000
C                 -1.1636350000      4.3604070000     -1.7606680000
C                 -1.0651220000      3.3901140000     -0.6728040000
C                 -1.1213080000      5.7787900000     -1.4338970000
C                 -0.8910200000      6.1844720000     -0.1314510000
C                 -0.7950140000      5.2408640000      0.9264340000
C                 -0.9286480000      3.8843220000      0.6901210000
O                 -1.2917310000      4.7695050000     -4.1513130000
O                 -0.9156780000      1.0625080000      0.0045970000
H                 -1.4338750000      2.7826100000     -5.4901820000
H                 -1.4630730000      0.3454700000     -6.0236240000
H                 -1.2938820000     -1.3258820000     -4.1498060000
H                 -1.1005430000     -0.5084600000     -1.8004380000
H                 -0.6661970000      5.6045300000      1.9410640000
H                 -0.8328760000      7.2423380000      0.1048630000
N                 -1.3345230000      6.7027290000     -2.4605260000
N                 -0.9536390000      2.9588320000      1.7371350000
C                 -0.8455130000      8.0457040000     -2.3543480000
C                 -0.3564530000      3.2653750000      3.0034860000
H                 -1.2859300000      6.2116040000     -3.3770280000
H                 -0.8578880000      1.9989540000      1.3460130000
H                  0.2142550000      8.1096600000     -2.0276830000
H                 -1.4260680000      8.6524220000     -1.6393520000
H                 -0.9275970000      8.5327060000     -3.3327830000
H                 -0.9473060000      3.9924080000      3.5854000000
H                  0.6667900000      3.6900070000      2.9226030000
H                 -0.2954190000      2.3476730000      3.5996110000


