%chk=073.chk
%nproc=8
%mem=30GB
#P UB3LYP/6-311++G(d,p) nosym opt freq

Oxidized

0 1
C          0.71666        1.42494       -1.30664
C         -0.65367        1.10898       -1.80453
C         -1.49470        0.43150       -1.00203
C         -1.02979       -0.11656        0.28657
C          0.43389       -0.12426        0.57376
C          1.24099        0.67098       -0.15183
O          1.37524        2.29119       -1.86644
O         -1.80809       -0.56715        1.11649
S          2.94788        0.79281        0.17284
C          3.27632        2.54194        0.30059
C          4.04799        3.18613       -0.67006
C          2.80546        3.23917        1.42001
C          3.08390        4.59975        1.54681
C          4.31836        4.54785       -0.53601
C          3.83513        5.25274        0.56810
O          3.67174        0.27534       -0.97440
O          3.26648        0.28140        1.49544
H          4.42699        2.64463       -1.53393
H          2.24476        2.73274        2.20175
H          4.90762        5.06035       -1.29280
H          2.72691        5.15202        2.41287
H          4.05313        6.31348        0.66931
S         -3.14007        0.09470       -1.46379
C         -4.13341        0.67150       -0.09830
C         -4.26186        2.05024        0.11037
C         -4.82289       -0.24020        0.70542
C         -5.61776        0.23291        1.74931
C         -5.06174        2.51363        1.15452
C         -5.73435        1.60593        1.97443
H         -3.76541        2.76517       -0.54107
H         -4.73622       -1.31141        0.53769
H         -6.14819       -0.46968        2.38777
H         -5.17262        3.58187        1.32509
H         -6.35941        1.96884        2.78715
O         -3.30272       -1.34398       -1.57073
O         -3.55469        0.93406       -2.57551
C         -0.93217        1.61357       -3.19648
C          0.83518       -1.05618        1.68740
H         -0.01106        1.79857       -3.75992
H         -1.49331        2.55237       -3.16116
H         -1.47579        0.87353       -3.79134
H          0.08998       -1.84151        1.85519
H          0.95512       -0.50634        2.62587
H          1.75632       -1.59610        1.44873









