%chk=121.chk
%nproc=8
%mem=30GB
#P UB3LYP/6-311++G(d,p) nosym opt freq SCRF=(PCM,Solvent=n,n-DiMethylFormamide)

Oxidized

0 1
Cl                 2.5930850000      3.1395560000     -0.6929400000
C                  2.4787410000      1.4434990000     -0.2834950000
C                  3.6819550000      0.7406150000     -0.2534130000
C                  3.6953370000     -0.6163910000      0.0488610000
C                  2.5050040000     -1.2824320000      0.3077360000
C                  1.2949150000     -0.5911970000      0.2585680000
C                  0.0505030000     -1.3903560000      0.5265690000
O                  0.1449480000     -2.5124840000      0.9856430000
C                 -1.2607740000     -0.7593900000      0.2005790000
C                 -2.4753170000     -1.4702840000      0.1353840000
Cl                -2.5851920000     -3.2030940000      0.3418910000
C                 -3.6733250000     -0.8107170000     -0.1336450000
C                 -3.6891570000      0.5660490000     -0.3267440000
C                 -2.5058100000      1.2897290000     -0.2673940000
C                 -1.3000180000      0.6344080000     -0.0200650000
C                 -0.0619690000      1.4863480000      0.0035860000
O                 -0.1672230000      2.6974260000      0.0360340000
C                  1.2570940000      0.7912370000     -0.0248940000
H                  4.6021630000      1.2690710000     -0.4669040000
H                  4.6382960000     -1.1499220000      0.0757740000
H                  2.4869150000     -2.3377720000      0.5458440000
H                 -4.5876640000     -1.3875400000     -0.1871900000
H                 -4.6283190000      1.0679160000     -0.5283810000
H                 -2.4897820000      2.3617310000     -0.4134110000


