%chk=128-rad.chk
%nproc=8
%mem=30GB
#P UB3LYP/6-311++G(d,p) nosym opt freq

Radical

-1 2
C         -3.43011        3.59512        0.06284
C         -4.63027        2.85993        0.02015
C         -4.62195        1.46818        0.03856
C         -2.19741        2.90057        0.13514
C         -2.20443        1.50228        0.14310
C         -3.41133        0.78901        0.09792
C         -0.88830        3.60769        0.22324
C          0.38698        2.84906        0.08319
C          0.33898        1.45163        0.09504
C         -0.94602        0.73845        0.19328
C          1.64223        3.49407       -0.04112
C          2.80995        2.71189       -0.12652
C          2.74751        1.32162       -0.10123
C          1.51416        0.69103        0.00663
O         -0.85978        4.81276        0.43914
O         -0.96850       -0.48385        0.29172
C         -3.53219        5.09798        0.03533
H         -5.58873        3.37540       -0.02805
H         -5.55750        0.91485        0.00498
H         -3.40950       -0.29988        0.10831
C          1.80199        4.99160       -0.08167
H          1.46974       -0.39690        0.02107
H          3.78536        3.18893       -0.21416
H          3.65855        0.73162       -0.16797
H         -4.56433        5.42617       -0.13156
H         -2.93716        5.51060       -0.78546
H         -3.21024        5.52145        0.99166
H          1.18809        5.42403       -0.87805
H          2.83782        5.27795       -0.29602
H          1.53930        5.43145        0.88528






