%chk=179-rad-PCM.chk
%nproc=8
%mem=30GB
#P UB3LYP/6-311++G(d,p) SCRF=(PCM,Solvent=n,n-DiMethylFormamide)

Radical PCM in DMF 

-1 2
C                 -3.4283940000     -2.7383470000     -0.3569740000
O                 -2.1388010000     -2.1983880000     -0.2002020000
C                 -1.9908230000     -0.8343750000     -0.2016110000
C                 -3.0783670000      0.0160410000     -0.3536250000
C                 -2.9178290000      1.4097220000     -0.3541690000
C                 -1.6639420000      1.9708790000     -0.2023000000
O                 -1.5423360000      3.3163850000     -0.2072650000
C                 -0.5173910000      1.1257250000     -0.0428300000
C                  0.7766220000      1.7592470000      0.1128030000
O                  0.9044770000      3.0374450000      0.1097550000
C                  1.9373530000      0.9096160000      0.2736540000
C                  3.2196880000      1.4861320000      0.4282570000
C                  4.3378890000      0.6929290000      0.5826660000
C                  4.2093820000     -0.7129990000      0.5876070000
C                  2.9631720000     -1.2910670000      0.4377590000
C                  1.8060220000     -0.5016080000      0.2784410000
C                  0.5023220000     -1.1768000000      0.1229370000
O                  0.4527750000     -2.4237830000      0.1365190000
C                 -0.6734270000     -0.3058660000     -0.0409860000
H                 -3.3001900000     -3.8212390000     -0.3244780000
H                 -4.1073640000     -2.4332470000      0.4516270000
H                 -3.8810260000     -2.4595630000     -1.3189150000
H                 -4.0747140000     -0.3867870000     -0.4750200000
H                 -3.7724040000      2.0661580000     -0.4735250000
H                 -0.5501900000      3.4825830000     -0.0829830000
H                  3.2882370000      2.5673690000      0.4206280000
H                  5.3167060000      1.1486030000      0.7004190000
H                  5.0891910000     -1.3378770000      0.7090780000
H                  2.8333620000     -2.3668880000      0.4376420000





