%chk=066-an.chk
%nproc=8
%mem=30GB
#P UB3LYP/6-311++G(d,p) nosym opt freq

Reduced

-2 1
C                  1.3523360000     -0.5004070000      1.8587340000
C                  0.9364300000     -1.5429460000      0.9557400000
C                 -0.2213040000     -1.4959390000      0.2053600000
C                 -1.1604870000     -0.3951170000      0.2279290000
C                 -0.7722110000      0.6502060000      1.1072450000
C                  0.4264050000      0.6063310000      1.8660730000
O                  2.4145400000     -0.5962700000      2.5752120000
O                 -2.2305330000     -0.3899890000     -0.4985020000
S                  0.7718960000      1.9820260000      2.9237250000
C                  0.7620760000      1.3362740000      4.6225500000
C                 -0.3614850000      1.5636530000      5.4235330000
C                  1.8572040000      0.6139850000      5.1177800000
C                  1.8114580000      0.1312460000      6.4248330000
C                 -0.3906510000      1.0812670000      6.7298900000
C                  0.6991080000      0.3638270000      7.2394800000
O                  2.1167660000      2.5669060000      2.7137460000
O                 -0.3708930000      2.9357540000      2.8816200000
H                  1.5948460000     -2.4095910000      0.9032920000
H                 -0.4726710000     -2.3284030000     -0.4532200000
H                 -1.4062400000      1.5257520000      1.1792340000
H                 -1.1899340000      2.1239190000      5.0068500000
H                  2.6806140000      0.4039780000      4.4466510000
H                  2.6529370000     -0.4389070000      6.8096870000
H                 -1.2624300000      1.2648070000      7.3525240000
H                  0.6761460000     -0.0158230000      8.2576530000


