%chk=266-rad.chk
%nproc=8
%mem=30GB
#P UB3LYP/6-311++G(d,p) nosym  opt freq

Radical

-1 2
C                 -1.2656930000      2.8692930000      0.0177730000
C                 -2.5594520000      2.3821110000      0.0157700000
C                 -2.7903870000      0.9912260000      0.0151210000
C                 -0.1570560000      1.9956300000      0.0188030000
C                 -0.3922750000      0.5927510000      0.0181470000
C                 -1.7172940000      0.1177180000      0.0163030000
C                  1.1975250000      2.5620140000      0.0207050000
C                  2.2695120000      1.5811190000      0.0213740000
C                  2.0442260000      0.2185390000      0.0209550000
C                  0.7291270000     -0.3619980000      0.0193750000
O                  1.4121780000      3.8014390000      0.0216510000
O                  0.5453730000     -1.6080350000      0.0187660000
H                 -1.0614850000      3.9339890000      0.0182560000
H                 -1.8600880000     -0.9572110000      0.0157010000
O                  3.5239260000      2.1415370000      0.0226600000
C                  4.6461060000      1.2828570000      0.0277990000
C                  5.8763830000      2.1509830000      0.0309080000
C                  7.1301530000      1.7039360000      0.0252370000
H                 -3.3993730000      3.0711440000      0.0148460000
H                 -3.8068790000      0.6085400000      0.0135490000
H                  2.8617630000     -0.4919910000      0.0215860000
H                  4.6360180000      0.6278020000     -0.8553610000
H                  4.6295290000      0.6315480000      0.9140400000
H                  5.6678610000      3.2174120000      0.0395580000
H                  7.3639900000      0.6424660000      0.0164240000
H                  7.9722210000      2.3868910000      0.0293620000





