%chk=018-rad.chk
%nproc=8
%mem=30GB
#P UB3LYP/6-311++G(d,p) nosym  opt freq SCRF=(PCM,Solvent=n,n-DiMethylFormamide)

Radical

-1 2
C                 -1.6585850000      0.5088360000      1.4754590000
C                 -2.8221720000      1.0662450000      0.7609450000
C                 -2.7871990000      0.9454800000     -0.6091980000
C                 -1.6594900000      0.4370040000     -1.3955270000
C                 -0.4162640000      0.0815690000     -0.6860790000
C                 -0.5004430000      0.0775920000      0.6872600000
O                 -1.7671730000      0.3172960000     -2.6393240000
O                 -1.6406070000      0.4014210000      2.7248960000
Cl                 0.7941800000     -0.5097140000      1.7591100000
Cl                -4.1533840000      1.3512750000     -1.6762800000
C                  0.7944790000     -0.2706170000     -1.6001980000
C                  1.0398970000      0.9085440000     -2.5824810000
C                  2.1548630000     -0.5007560000     -0.9047510000
C                  0.4787830000     -1.5655900000     -2.3912330000
C                 -3.9319260000      1.6746340000      1.6685600000
C                 -3.2904410000      2.7444900000      2.5956780000
C                 -5.0943190000      2.4056550000      0.9602050000
C                 -4.5718590000      0.5480800000      2.5191770000
H                  0.1606870000      1.1224290000     -3.1842790000
H                  1.8730360000      0.6568080000     -3.2489040000
H                  1.3192920000      1.8092200000     -2.0255420000
H                  2.4534710000      0.3432580000     -0.2809950000
H                  2.9076490000     -0.6191970000     -1.6926350000
H                  2.1713000000     -1.3992690000     -0.2906260000
H                  0.3447660000     -2.4053820000     -1.7016220000
H                  1.3182530000     -1.8069290000     -3.0547720000
H                 -0.4232850000     -1.4499660000     -2.9886420000
H                 -2.4916140000      2.3265460000      3.2024000000
H                 -4.0600630000      3.1570780000      3.2582860000
H                 -2.8899000000      3.5691090000      1.9964780000
H                 -4.7463990000      3.1977290000      0.2952040000
H                 -5.7115540000      2.8679070000      1.7391800000
H                 -5.7304920000      1.7350350000      0.3855190000
H                 -3.8236870000      0.0422370000      3.1261370000
H                 -5.0587280000     -0.1855260000      1.8683730000
H                 -5.3387720000      0.9731730000      3.1782900000


