%chk=187.chk
%nproc=8
%mem=30GB
#P UB3LYP/6-311++G(d,p) nosym opt freq

Oxidized

0 1
O    -2.2106449923   -2.6112495216   -0.4220444114
C    -2.3496637007   -1.2499692182   -0.1880615755
C    -3.6124303928   -0.6983702666   -0.0802158636
C    -3.6897645040    0.6486240711    0.1506585114
C    -2.5440450903    1.4429782538    0.2739403600
C    -1.2946386254    0.8702726050    0.1626323101
C    -0.0543991553    1.6503995980    0.2824511217
O    -0.1808873117    2.8905890833    0.4956190894
C     1.2558522676    1.0401823677    0.1640723768
C     2.4003981664    1.7984411657    0.2811793797
C     3.6633973369    1.2469215908    0.1733270472
C     3.7553767070   -0.1053663659   -0.0586060397
C     2.6158513198   -0.9222074308   -0.1857726093
O     2.8282882073   -2.2369420306   -0.4125990958
C     1.3732879428   -0.3253021081   -0.0703911489
C     0.1360465805   -1.0796470974   -0.1858423651
O     0.1663681218   -2.3098227643   -0.3962617939
C    -1.2014049794   -0.4832964363   -0.0695384594
H    -2.9995544383   -3.2272848782   -0.5187167525
H    -4.5261655469   -1.2712586650   -0.1681889487
H    -4.6257310183    1.1786961260    0.2512876180
H    -2.5900399763    2.4941882963    0.4539655073
H     2.2537889940    2.8649876115    0.4649085321
H     4.5223814298    1.8612854912    0.2689607985
H     4.7425923679   -0.5355497135   -0.1427439533
H     2.1657402899   -2.9312997640   -0.5240196349


