%chk=230-rad.chk
%nproc=8
%mem=30GB
#P UB3LYP/6-311++G(d,p) nosym  opt freq SCRF=(PCM,Solvent=n,n-DiMethylFormamide)

Radical

-1 2
C                  5.7939660000     -5.2517700000      1.0667460000
C                  6.6145930000     -5.2215160000     -0.0482060000
C                  6.4119660000     -4.2452190000     -1.0414790000
C                  4.7502930000     -4.3187380000      1.2257740000
C                  4.5456600000     -3.3357520000      0.2250220000
C                  5.3932220000     -3.3204360000     -0.9040670000
C                  3.9123200000     -4.3672280000      2.4366920000
C                  2.8807670000     -3.3705060000      2.5150130000
C                  2.6101830000     -2.4320350000      1.5234120000
C                  3.4666720000     -2.3646470000      0.3417330000
O                  4.1172620000     -5.2203530000      3.3413180000
O                  3.2480990000     -1.4767870000     -0.5403800000
H                  5.9387570000     -5.9926130000      1.8432460000
H                  7.4137120000     -5.9466840000     -0.1546750000
H                  5.2256150000     -2.5641970000     -1.6631220000
Cl                 1.9862770000     -3.3266880000      4.0453670000
H                  7.0536820000     -4.2208930000     -1.9155490000
N                  1.6184060000     -1.4560160000      1.5689750000
C                  0.1960880000     -1.7924110000      1.7681520000
C                 -0.6626270000     -0.5299640000      1.6723450000
C                 -2.1553070000     -0.8299900000      1.8364200000
H                  1.7317560000     -0.8936520000      0.7280670000
H                  0.0601300000     -2.2545110000      2.7460440000
H                 -0.1342980000     -2.5240600000      1.0130490000
H                 -0.4896310000     -0.0437870000      0.7029730000
H                 -0.3367490000      0.1796150000      2.4404530000
H                 -2.5111250000     -1.5156190000      1.0577050000
H                 -2.7477620000      0.0859080000      1.7684120000
H                 -2.3632640000     -1.2924320000      2.8076120000





