%chk=063-rad-PCM.chk
%nproc=8
%mem=30GB
#P UB3LYP/6-311++G(d,p) SCRF=(PCM,Solvent=n,n-DiMethylFormamide)

Radical PCM in DMF 

-1 2
C                 -1.4704310000     -2.0665090000      1.4067880000
C                 -2.0502990000     -2.0607710000      0.0810280000
C                 -1.7899960000     -1.0812280000     -0.8272650000
C                 -0.9012350000      0.0253020000     -0.5450460000
C                 -0.2791430000      0.0358400000      0.7847980000
C                 -0.5813740000     -0.9441830000      1.7316860000
O                 -1.7414680000     -2.9853950000      2.2276260000
O                 -0.6743140000      0.9109370000     -1.4143810000
H                 -2.2370290000     -1.0904850000     -1.8173730000
C                  0.5201770000     -1.9926810000      3.7434950000
C                 -0.2471880000      0.2773900000      3.9090980000
C                  0.9708960000     -1.9347700000      5.0599390000
C                  0.8125350000     -0.7701990000      5.8120110000
C                  0.1945620000      0.3354210000      5.2288930000
H                 -2.7175470000     -2.8866930000     -0.1489010000
H                  0.6230190000     -2.9082420000      3.1765820000
H                 -0.7274730000      1.1421020000      3.4666780000
H                  1.4406400000     -2.8073600000      5.5037770000
H                  1.1596680000     -0.7276330000      6.8396250000
H                  0.0545660000      1.2467320000      5.8020660000
C                  0.7302940000      1.1024870000      1.0325430000
C                  0.4434380000      2.4520380000      0.7707140000
C                  2.0187990000      0.7880580000      1.4910550000
C                  1.3945350000      3.4453700000      0.9903380000
C                  2.9751040000      1.7784440000      1.7031460000
C                  2.6668520000      3.1162590000      1.4591800000
H                 -0.5315170000      2.7135100000      0.3817250000
H                  2.2699120000     -0.2484650000      1.6825670000
H                  1.1432330000      4.4817190000      0.7856570000
H                  3.9629960000      1.5030270000      2.0592770000
H                  3.4091270000      3.8906740000      1.6253590000
C                 -0.0841800000     -0.8811420000      3.1341370000





