%chk=063-rad.chk
%nproc=8
%mem=30GB
#P UB3LYP/6-311++G(d,p) nosym  opt freq

Radical

-1 2
C                 -1.4704500000     -2.0664160000      1.4069230000
C                 -2.0500520000     -2.0608480000      0.0810140000
C                 -1.7898390000     -1.0812440000     -0.8272400000
C                 -0.9016780000      0.0257330000     -0.5447430000
C                 -0.2793850000      0.0360940000      0.7849840000
C                 -0.5814300000     -0.9440880000      1.7318140000
O                 -1.7410980000     -2.9856550000      2.2275290000
O                 -0.6743120000      0.9110160000     -1.4143550000
H                 -2.2365710000     -1.0906650000     -1.8174800000
C                  0.5197480000     -1.9930000000      3.7436000000
C                 -0.2465550000      0.2774570000      3.9090380000
C                  0.9704980000     -1.9351900000      5.0600510000
C                  0.8127670000     -0.7704530000      5.8119830000
C                  0.1952090000      0.3353820000      5.2288210000
H                 -2.7169440000     -2.8870190000     -0.1490440000
H                  0.6219650000     -2.9086750000      3.1767660000
H                 -0.7265700000      1.1422670000      3.4665340000
H                  1.4398430000     -2.8079570000      5.5039550000
H                  1.1599290000     -0.7279450000      6.8395970000
H                  0.0555380000      1.2467510000      5.8019830000
C                  0.7299580000      1.1028000000      1.0328010000
C                  0.4433160000      2.4522510000      0.7704020000
C                  2.0184020000      0.7882980000      1.4914620000
C                  1.3945050000      3.4455430000      0.9898890000
C                  2.9747830000      1.7786260000      1.7034000000
C                  2.6666710000      3.1164190000      1.4591100000
H                 -0.5315010000      2.7136260000      0.3810150000
H                  2.2693400000     -0.2482290000      1.6831450000
H                  1.1433520000      4.4818630000      0.7848860000
H                  3.9626410000      1.5032130000      2.0596310000
H                  3.4090220000      3.8907900000      1.6251980000
C                 -0.0839440000     -0.8811920000      3.1341520000


