%chk=007-rad-PCM.chk
%nproc=8
%mem=30GB
#P UB3LYP/genecp SCRF=(PCM,Solvent=n,n-DiMethylFormamide)

Radical PCM in DMF 

-1 2
C                 -1.3521190000      1.9580320000      0.8177640000
C                 -2.6146170000      1.4194430000      0.3065330000
C                 -2.6346080000      0.2507450000     -0.4046360000
C                 -1.4583250000     -0.5296930000     -0.7082430000
C                 -0.1779950000     -0.0157950000     -0.2062360000
C                 -0.1792830000      1.1575160000      0.5071200000
O                 -1.5289840000     -1.6023400000     -1.3718470000
H                 -3.5646230000     -0.1596090000     -0.7846170000
O                 -1.3077570000      3.0297420000      1.4737090000
I                  1.6478890000      1.9679480000      1.2759600000
C                  1.0539380000     -0.8225870000     -0.5129790000
C                 -3.8577800000      2.2465040000      0.5938630000
C                 -3.9546380000      3.4389500000     -0.3797910000
C                 -5.1633180000      1.4404170000      0.5955410000
H                  0.7645720000     -1.6999240000     -1.0918440000
H                  1.5582010000     -1.1447510000      0.4043050000
H                  1.7822480000     -0.2366700000     -1.0836820000
H                 -3.7123920000      2.6712450000      1.5928170000
H                 -4.8077990000      4.0809440000     -0.1278890000
H                 -4.0850100000      3.0869150000     -1.4091600000
H                 -3.0462130000      4.0415950000     -0.3301110000
H                 -5.9988540000      2.0766060000      0.9082870000
H                 -5.1072590000      0.5900850000      1.2812140000
H                 -5.4044740000      1.0508540000     -0.3990170000

H C O 0
6-311++G(d,p)
****
I 0
def2TZVP
****

I 0
def2TZVP















