%chk=089-PCM.chk
%nproc=8
%mem=30GB
#P UB3LYP/6-311++G(d,p) SCRF=(PCM,Solvent=n,n-DiMethylFormamide)

Quinone PCM in DMF 

0 1
C                  1.7060970000      1.4281280000     -0.5486290000
C                  0.3233550000      1.8574960000     -0.1717500000
C                 -0.5871900000      0.9343730000      0.1997260000
C                 -0.2153590000     -0.5136010000      0.2830720000
C                  1.1371160000     -0.9551350000     -0.1303310000
C                  2.0649950000     -0.0358570000     -0.5095560000
O                  2.5406760000      2.2387650000     -0.9011110000
O                 -1.0268850000     -1.3248050000      0.7098400000
O                  3.3407390000     -0.2239480000     -0.8578340000
C                  3.8837970000     -1.5205390000     -1.1470150000
C                  0.0443050000      3.3360360000     -0.2507060000
C                 -2.0038470000      1.2471300000      0.5838240000
H                  4.8902890000     -1.3195430000     -1.5102680000
H                  3.3031690000     -2.0177270000     -1.9274400000
H                  3.9160610000     -2.1452720000     -0.2563480000
O                  1.4658320000     -2.2691800000      0.0358450000
C                  0.7155380000     -3.2460100000     -0.7079970000
H                  1.1683520000     -4.2071240000     -0.4680580000
H                  0.8095310000     -3.0562030000     -1.7832080000
H                 -0.3322520000     -3.2428880000     -0.4125640000
H                  0.9496980000      3.8737960000     -0.5258270000
H                 -0.3128620000      3.7227670000      0.7073630000
H                 -0.7231770000      3.5529030000     -0.9996930000
H                 -2.2262990000      2.3084970000      0.4927670000
H                 -2.1986130000      0.9299420000      1.6121600000
H                 -2.7021460000      0.6842600000     -0.0419310000





