%chk=295-an-PCM.chk
%nproc=8
%mem=30GB
#P UB3LYP/6-311++G(d,p) SCRF=(PCM,Solvent=n,n-DiMethylFormamide)

Reduced 

-2 1
C                 -1.0230010000      2.0353060000     -0.2855770000
C                 -1.4797750000      2.1318030000      1.0156130000
C                 -0.8508520000      1.3916970000      2.0416320000
C                  0.0713600000      1.2032640000     -0.6166520000
C                  0.7107270000      0.4522040000      0.4232440000
C                  0.2245450000      0.5707900000      1.7361710000
C                  0.5414330000      1.1060830000     -1.9755150000
C                  1.6632080000      0.2307620000     -2.2023100000
C                  2.3025810000     -0.5141900000     -1.2271840000
C                  1.8571990000     -0.4341890000      0.1469840000
O                  0.0454200000      1.7257610000     -2.9828980000
O                  2.4133510000     -1.0927190000      1.0710870000
H                 -1.4895880000      2.5939960000     -1.0898600000
H                 -2.3222260000      2.7775940000      1.2501140000
H                 -1.2080040000      1.4668600000      3.0650550000
H                  0.7281950000     -0.0081350000      2.5029080000
O                  2.0545600000      0.1868480000     -3.5135570000
C                  3.4645050000     -1.4135950000     -1.5626700000
C                  4.8410180000     -0.7336210000     -1.4107400000
C                  6.0131150000     -1.6660120000     -1.7422930000
C                  7.3928030000     -1.0084010000     -1.6091970000
C                  8.5639190000     -1.9387470000     -1.9535790000
C                  9.9438520000     -1.2794230000     -1.8248510000
C                 11.1166400000     -2.2057540000     -2.1733410000
C                 12.4936330000     -1.5370790000     -2.0473400000
C                 13.6771170000     -2.4823360000     -2.4054900000
C                 15.0260190000     -1.8706720000     -2.2972490000
Br                16.8209850000     -3.8601290000     -3.0177440000
H                  1.4072940000      0.8037090000     -3.9259450000
H                  3.3617970000     -1.7757660000     -2.5915300000
H                  3.4315250000     -2.2757710000     -0.8883720000
H                  4.9371440000     -0.3718940000     -0.3812320000
H                  4.8780630000      0.1465730000     -2.0638370000
H                  5.8941090000     -2.0447620000     -2.7670800000
H                  5.9687790000     -2.5458830000     -1.0862510000
H                  7.5166160000     -0.6364050000     -0.5835620000
H                  7.4336020000     -0.1234300000     -2.2583080000
H                  8.4378250000     -2.3122480000     -2.9787510000
H                  8.5250690000     -2.8231980000     -1.3036490000
H                 10.0704350000     -0.9076280000     -0.7993630000
H                  9.9802580000     -0.3932890000     -2.4725220000
H                 10.9902870000     -2.5796000000     -3.1981770000
H                 11.0847340000     -3.0906240000     -1.5237900000
H                 12.6316510000     -1.1676980000     -1.0237850000
H                 12.5353140000     -0.6546200000     -2.6975140000
H                 13.5212560000     -2.8478690000     -3.4289230000
H                 13.6193570000     -3.3615400000     -1.7505940000
H                 15.5111310000     -1.7850400000     -1.3348580000
H                 15.4066160000     -1.2440160000     -3.0918120000





