%chk=235-rad.chk
%nproc=8
%mem=30GB
#P UB3LYP/6-311++G(d,p) nosym  opt freq

Radical

-1 2
C                  5.7759800000     -5.2797170000      1.1218440000
C                  6.7116790000     -5.1505540000      0.1160720000
C                  6.5848200000     -4.1136860000     -0.8350290000
C                  4.6906480000     -4.3902670000      1.2166850000
C                  4.5636350000     -3.3511760000      0.2637240000
C                  5.5256180000     -3.2330450000     -0.7554210000
C                  3.7114810000     -4.5506700000      2.2953390000
C                  2.6135260000     -3.5987620000      2.3369970000
C                  2.4886030000     -2.5793240000      1.4014730000
C                  3.4487180000     -2.4018230000      0.3244230000
O                  3.8208270000     -5.4750930000      3.1446320000
O                  3.3320560000     -1.4762780000     -0.5226770000
H                  5.8520470000     -6.0660890000      1.8619140000
H                  5.4072120000     -2.4307500000     -1.4724700000
Br                 8.1668040000     -6.4126390000      0.0610950000
Br                 7.8564980000     -3.8786420000     -2.2636040000
C                  1.6498780000     -3.8314030000      3.4753740000
C                  1.3713380000     -1.5642340000      1.3937430000
H                  2.1812310000     -3.8020100000      4.4322520000
H                  1.2216180000     -4.8371270000      3.4096800000
H                  0.8364160000     -3.1079980000      3.5058950000
H                  0.6545200000     -1.7065570000      2.2011210000
H                  0.8355560000     -1.5988730000      0.4394450000
H                  1.7800980000     -0.5507140000      1.4627420000


