%chk=157-an-PCM.chk
%nproc=8
%mem=30GB
#P UB3LYP/6-311++G(d,p) SCRF=(PCM,Solvent=n,n-DiMethylFormamide)

Reduced 

-2 1
 C                 -1.68718400    1.96166100   -5.16399400
 C                 -1.61725300    0.64323200   -5.54287000
 C                 -1.31271800   -0.36978500   -4.59222400
 C                 -1.45787000    2.36524000   -3.80676000
 C                 -1.14858300    1.33194000   -2.84423600
 C                 -1.08729100   -0.00928400   -3.27829500
 C                 -1.53036200    3.71073700   -3.42505700
 C                 -0.90052100    1.64531200   -1.44665600
 C                 -1.29860400    4.08319500   -2.07671300
 C                 -0.98687500    3.06119900   -1.09932600
 C                 -1.35448900    5.44476800   -1.60751200
 C                 -1.11949600    5.75622900   -0.28290200
 C                 -0.81537100    4.74798300    0.65958600
 C                 -0.75563500    3.43782200    0.24076400
 O                 -1.83124400    4.63956300   -4.41060800
 O                 -0.62829800    0.75304400   -0.58963400
 N                 -1.66621500    6.50871100   -2.55904100
 H                 -1.91922600    2.73387000   -5.88790200
 H                 -1.79697900    0.37179800   -6.58142300
 H                 -1.25911500   -1.41096100   -4.89961500
 H                 -0.85178600   -0.74981100   -2.52049900
 S                 -1.20597700    7.50217700    0.26096000
 H                 -0.63763400    5.03582500    1.68797200
 H                 -1.83322000    5.51739400   -3.94877200
 H                 -2.47737800    7.01197400   -2.19632700
 H                 -0.52549300    2.63607900    0.93398300
 O                 -2.59977000    7.94039000   -0.06232100
 O                 -0.90246600    7.49523900    1.71444600
 O                 -0.18243500    8.21636200   -0.56528600
 H                 -0.91910400    7.20209600   -2.49358600





















