%chk=196-an-PCM.chk
%nproc=8
%mem=30GB
#P UB3LYP/6-311++G(d,p) SCRF=(PCM,Solvent=n,n-DiMethylFormamide)

Reduced 

-2 1
C                 -4.6669330000      0.2851680000     -0.0836420000
C                 -3.2005000000     -0.0720180000     -0.0282860000
C                 -2.8173040000     -1.4475410000     -0.0613090000
C                 -1.4849920000     -1.8080800000     -0.0132010000
O                 -1.1385140000     -3.1226100000     -0.0454700000
C                 -0.4458520000     -0.8114360000      0.0712490000
C                  0.9168750000     -1.1997900000      0.1195300000
O                  1.2732450000     -2.5052570000      0.0875190000
C                  1.8954630000     -0.1747720000      0.2025200000
C                  3.2970090000     -0.5097260000      0.2546160000
O                  3.6678700000     -1.8190230000      0.2232900000
C                  4.2625650000      0.4758070000      0.3354600000
C                  3.8776990000      1.8454950000      0.3684900000
C                  2.5486130000      2.2010250000      0.3206230000
C                  1.5215190000      1.2216190000      0.2371350000
C                  0.1341890000      1.6468490000      0.1891840000
O                 -0.2033640000      2.8833900000      0.2196200000
C                 -0.8394280000      0.5774600000      0.1046440000
C                 -2.2260550000      0.8963670000      0.0524470000
H                 -5.1469640000     -0.0847230000     -1.0034350000
H                 -5.2297850000     -0.1513560000      0.7565480000
H                 -4.8051790000      1.3704690000     -0.0490400000
H                 -3.5653710000     -2.2347120000     -0.1243200000
H                 -0.1159750000     -3.1149180000      0.0016740000
H                  2.7835750000     -2.3296040000      0.1636280000
H                  5.3075340000      0.1796930000      0.3725780000
H                  4.6482400000      2.6125280000      0.4322860000
H                  2.2316590000      3.2379970000      0.3445130000
H                 -2.4798380000      1.9516990000      0.0796440000





