%chk=060-rad.chk
%nproc=8
%mem=30GB
#P UB3LYP/6-311++G(d,p) nosym  opt freq SCRF=(PCM,Solvent=n,n-DiMethylFormamide)

Radical

-1 2
C                 -0.2610560000      1.0566330000      0.1557060000
C                 -1.4173420000      0.2742460000     -0.2199470000
C                 -1.3309530000     -1.0481460000     -0.5440810000
C                 -0.0848620000     -1.7898590000     -0.5417660000
C                  1.0781290000     -0.9865690000     -0.1810350000
C                  1.0176660000      0.3479920000      0.1413630000
O                 -0.3409970000      2.2776630000      0.4661050000
O                 -0.0282280000     -3.0113350000     -0.8219830000
C                  2.2383550000      1.1556070000      0.5045960000
C                  2.3144150000      1.6247670000      1.9426760000
O                  3.1086410000      1.4156060000     -0.3008840000
H                  2.3514520000      0.7528570000      2.6049260000
H                  1.4086380000      2.1895720000      2.1746150000
H                  3.2032780000      2.2409250000      2.0879270000
H                 -2.2125850000     -1.6193090000     -0.8194210000
Cl                 2.6208700000     -1.8514290000     -0.1176880000
H                 -2.3689910000      0.7974010000     -0.2287090000


