%chk=268-an.chk
%nproc=8
%mem=30GB
#P UB3LYP/6-311++G(d,p) nosym opt freq SCRF=(PCM,Solvent=n,n-DiMethylFormamide)

Reduced

-2 1
C                  1.4936790000      3.4548080000     -0.2752140000
C                  0.7754570000      3.1849060000     -1.4276440000
C                  0.1224800000      1.9384410000     -1.5639500000
C                  1.5911260000      2.5188220000      0.7759140000
C                  0.9361200000      1.2524630000      0.6374040000
C                  0.2094130000      1.0026810000     -0.5490880000
C                  2.3728850000      2.8772350000      1.9700150000
C                  2.3783110000      1.8453260000      2.9573480000
C                  1.7381090000      0.5771630000      2.8144760000
C                  0.9942530000      0.2105320000      1.6773110000
O                  2.9838470000      3.9950770000      2.0517550000
O                  0.3904370000     -0.9160410000      1.5217980000
S                  3.2921540000      2.1330310000      4.4453150000
O                  2.9151980000      3.3848400000      5.1398350000
O                  3.2823700000      0.8932360000      5.2676630000
C                  5.0269020000      2.3352430000      3.9442750000
C                  5.4811410000      3.5529990000      3.4211360000
C                  5.8977770000      1.2495970000      4.0795120000
C                  6.8171710000      3.6690080000      3.0405520000
C                  7.6990060000      2.5936000000      3.1803460000
C                  7.2313670000      1.3806730000      3.6999520000
H                  2.0090730000      4.3996940000     -0.1351650000
H                  0.7132300000      3.9259580000     -2.2222970000
H                 -0.4459510000      1.7173590000     -2.4660150000
H                 -0.2759880000      0.0340440000     -0.6179570000
H                  1.8064040000     -0.1316850000      3.6303020000
H                  4.7683050000      4.3549250000      3.2844390000
H                  5.5133010000      0.3232040000      4.4889350000
H                  7.1716890000      4.6084190000      2.6252430000
H                  8.7384860000      2.6952300000      2.8804630000
H                  7.9078910000      0.5374650000      3.8102330000


