%chk=161-an.chk
%nproc=8
%mem=30GB
#P UB3LYP/6-311++G(d,p) nosym opt freq

Reduced

-2 1
N    -4.5204921765    1.0731336593   -0.5495318675
C    -3.2607643204    0.4439058507   -0.4073405591
C    -3.1795498242   -0.9540104024   -0.3881543085
Cl   -4.6276712187   -1.9209179087   -0.5391237063
C    -1.9533073719   -1.5842045334   -0.2496140638
C    -0.7912576757   -0.8697500741   -0.1280091732
C     0.5091854743   -1.5158200842    0.0187362456
O     0.5429980476   -2.7810853455    0.0317650055
C     1.7527891826   -0.7627042659    0.1489438883
C     2.9657965959   -1.4131916677    0.2861719401
C     4.1466283733   -0.7097174681    0.4098838658
C     4.0918813872    0.6781515457    0.3936555764
C     2.8656807072    1.3054817511    0.2551645080
C     1.6779512020    0.6142304148    0.1306075307
C     0.3869174488    1.2763913677   -0.0152278145
O     0.3348277279    2.5450962466   -0.0302752509
C    -0.8646247715    0.5002261737   -0.1461343416
C    -2.0805005573    1.1287344386   -0.2835294160
Br   -2.1208802107    3.0440563330   -0.3020707534
H    -5.0234482668    1.4304349962    0.2647654195
H    -4.9325107188    1.1694735406   -1.4948737403
H    -1.9123481002   -2.6793613168   -0.2370715805
H     3.0401323129   -2.4961019456    0.3022853338
H     5.1147930109   -1.1610030966    0.5189234183
H     4.9974142485    1.2488316601    0.4882757376
H     2.8403594936    2.3897201309    0.2443677168


