%chk=283-rad-PCM.chk
%nproc=8
%mem=30GB
#P UB3LYP/6-311++G(d,p) SCRF=(PCM,Solvent=n,n-DiMethylFormamide)

Radical PCM in DMF 

-1 2
C                 -1.9325660000      3.0532710000      0.2295580000
C                 -2.8669730000      2.2384850000      0.8414190000
C                 -2.5621400000      0.8870120000      1.1016470000
C                 -0.6670480000      2.5500750000     -0.1426180000
C                 -0.3569670000      1.1846820000      0.1199260000
C                 -1.3244870000      0.3775180000      0.7432940000
C                  0.3105410000      3.4038200000     -0.7834930000
C                  1.5766680000      2.7982380000     -1.1263020000
C                  1.9067790000      1.4797070000     -0.8939270000
C                  0.9527710000      0.6046620000     -0.2470030000
O                  0.1381360000      4.6356110000     -1.0642400000
O                  1.2162480000     -0.6022370000     -0.0051260000
H                 -2.1436340000      4.0956720000      0.0189130000
H                 -3.8367930000      2.6391520000      1.1223180000
H                 -3.2966620000      0.2476250000      1.5822990000
H                 -1.0627510000     -0.6575280000      0.9320340000
C                  3.2523700000      0.9230190000     -1.2814350000
O                  2.4480640000      3.6626720000     -1.7236010000
H                  3.6481590000      1.4825390000     -2.1353260000
H                  3.1153990000     -0.1193870000     -1.5866460000
H                  1.9218140000      4.4923880000     -1.7511090000
C                  4.2803860000      0.9618110000     -0.1339760000
C                  5.6372340000      0.3636240000     -0.5205810000
C                  6.6713670000      0.3940240000      0.6107660000
C                  8.0251930000     -0.2073140000      0.2183140000
H                  3.8673160000      0.4137770000      0.7195980000
H                  4.4169420000      2.0010330000      0.1886320000
H                  6.0393000000      0.9036800000     -1.3892020000
H                  5.4929240000     -0.6749850000     -0.8476820000
H                  6.2704710000     -0.1454510000      1.4776330000
H                  6.8150010000      1.4309770000      0.9392640000
H                  7.9184940000     -1.2549970000     -0.0826040000
H                  8.7403320000     -0.1707250000      1.0468050000
H                  8.4668410000      0.3328100000     -0.6261080000





