%chk=235-an.chk
%nproc=8
%mem=30GB
#P UB3LYP/6-311++G(d,p) nosym opt freq

Reduced

-2 1
 C                  5.77598000   -5.27971700    1.12184400
 C                  6.71167900   -5.15055400    0.11607200
 C                  6.58482000   -4.11368600   -0.83502900
 C                  4.69064800   -4.39026700    1.21668500
 C                  4.56363500   -3.35117600    0.26372400
 C                  5.52561800   -3.23304500   -0.75542100
 C                  3.71148100   -4.55067000    2.29533900
 C                  2.61352600   -3.59876200    2.33699700
 C                  2.48860300   -2.57932400    1.40147300
 C                  3.44871800   -2.40182300    0.32442300
 O                  3.82082700   -5.47509300    3.14463200
 O                  3.33205600   -1.47627800   -0.52267700
 H                  5.85204700   -6.06608900    1.86191400
 H                  5.40721200   -2.43075000   -1.47247000
 Br                 8.16680400   -6.41263900    0.06109500
 Br                 7.85649800   -3.87864200   -2.26360400
 C                  1.64987800   -3.83140300    3.47537400
 C                  1.37133800   -1.56423400    1.39374300
 H                  2.18123100   -3.80201000    4.43225200
 H                  1.22161800   -4.83712700    3.40968000
 H                  0.83641600   -3.10799800    3.50589500
 H                  0.65452000   -1.70655700    2.20112100
 H                  0.83555600   -1.59887300    0.43944500
 H                  1.78009800   -0.55071400    1.46274200











