%chk=049-an.chk
%nproc=8
%mem=30GB
#P UB3LYP/6-311++G(d,p) nosym opt freq

Reduced

-2 1
C     3.0495531426   -1.0917105061   -0.1593504703
C     1.7392054218   -0.3957070750   -0.0147144203
C     1.6533067347    0.8589211852    0.3969358548
C     0.3487757948    1.5101833145    0.5270751547
O     0.2658257908    2.7206152290    0.9242256036
C    -0.8965450352    0.8185677531    0.2144354192
C    -0.8193206905   -0.4371738072   -0.1981614576
C    -2.0854869340   -1.1429846714   -0.5169086505
C     0.4915693549   -1.0845117254   -0.3265702818
O     0.5142401630   -2.2702589684   -0.7194980556
C    -2.1856985435    1.5382054255    0.3683472515
H     3.3476867862   -1.1433619066   -1.2464650260
H     3.8185979920   -0.4885133925    0.3498108076
H     2.9618863837   -2.1130241169    0.2778398293
H     2.5373879957    1.4205217592    0.6423764746
H    -2.8684340881   -0.8354987875    0.2068377637
H    -1.9498518734   -2.2530819288   -0.3561185451
H    -2.3595545285   -0.9285232829   -1.5713131410
H    -2.5145625437    1.5574902708    1.4277954928
H    -2.0743851576    2.6226931671    0.0761855124
H    -2.9741961657    1.1371520643   -0.3027651162


