%chk=320-rad.chk
%nproc=8
%mem=30GB
#P UB3LYP/6-311++G(d,p) nosym  opt freq

Radical

-1 2
C                 -0.4680980000      3.9067600000      0.3059050000
C                  0.5568340000      2.9927980000      0.3414690000
C                  0.3875710000      1.6661250000     -0.1652380000
C                 -0.8435600000      1.3100610000     -0.6938580000
C                  1.5204330000      0.7285860000     -0.1367730000
C                  1.5001230000     -0.7024440000      0.1076710000
C                  2.8447140000      1.0504870000     -0.3270660000
C                  2.8423440000     -1.1713390000      0.0484410000
C                  0.4846480000     -1.6236740000      0.4108580000
C                  0.8134990000     -2.9576070000      0.6154500000
C                  2.1474150000     -3.4011590000      0.5297430000
C                  3.1784410000     -2.5124480000      0.2509360000
N                  3.6436980000     -0.0808380000     -0.2045030000
H                 -0.9968670000      0.3264100000     -1.1265860000
H                  3.2856500000      2.0076040000     -0.5567840000
H                 -0.5430850000     -1.2904750000      0.4849310000
H                  0.0306660000     -3.6719470000      0.8468080000
H                  2.3746590000     -4.4500430000      0.6892030000
H                  4.2091610000     -2.8494590000      0.1977300000
H                  4.6345210000     -0.1104790000     -0.3698070000
C                 -1.7769790000      3.6067710000     -0.2333720000
C                 -1.9746640000      2.2036470000     -0.7692800000
O                 -2.6949410000      4.4545700000     -0.2521360000
O                 -3.0668720000      1.8420350000     -1.2634470000
H                 -0.3334730000      4.9077770000      0.7074250000
H                  1.5090920000      3.2649800000      0.7889810000


