%chk=337-an.chk
%nproc=8
%mem=30GB
#P UB3LYP/6-311++G(d,p) nosym opt freq

Reduced

-2 1
O                 -0.1647640000     -2.5423420000      0.0428730000
C                 -0.0935660000     -1.2735130000     -0.0696870000
C                 -1.2964710000     -0.4588550000      0.0359050000
C                 -2.5392910000     -1.0980050000      0.3282790000
C                 -3.7127760000     -0.3813760000      0.5113300000
C                 -3.7274290000      1.0158020000      0.4059970000
C                 -2.5234550000      1.6722830000      0.0931240000
C                 -1.3495670000      0.9566590000     -0.1134920000
S                  0.0575630000      1.8675650000     -0.7230460000
C                  1.4256910000      0.7655830000     -0.3921520000
C                  2.7033840000      1.3113700000     -0.4455240000
C                  3.8430840000      0.4961350000     -0.3282590000
C                  3.6603200000     -0.8709520000     -0.0960900000
C                  2.3847990000     -1.4111380000      0.0023580000
C                  1.2114180000     -0.6225260000     -0.1769380000
H                 -2.5182860000     -2.1786650000      0.4029770000
H                 -4.6340230000     -0.9099910000      0.7506040000
H                 -4.6382530000      1.5833790000      0.5786210000
H                 -2.5073080000      2.7553160000     -0.0026030000
H                  2.8192170000      2.3800630000     -0.6095320000
H                  4.8398570000      0.9238530000     -0.4138720000
H                  4.5304940000     -1.5161900000      0.0156140000
H                  2.2293610000     -2.4644530000      0.2035130000


