%chk=331-rad.chk
%nproc=8
%mem=30GB
#P UB3LYP/6-311++G(d,p) nosym opt freq

Radical

-1 2
C         -1.88624        3.51732       -0.95446
C         -3.00086        2.91689       -0.36284
C         -0.65657        2.83586       -1.02705
C         -0.53637        1.52365       -0.49648
C         -2.89299        1.63150        0.15987
C         -1.68193        0.94061        0.09690
C          0.50765        3.49614       -1.65930
C          1.79183        2.78655       -1.73609
C          1.90681        1.41943       -1.18034
C          0.78391        0.79411       -0.57544
C          3.13808        0.74105       -1.25492
C          3.27368       -0.55023       -0.73809
C          2.17921       -1.17126       -0.14351
C          0.95069       -0.51412       -0.06058
O          0.41230        4.62576       -2.11843
O          2.75398        3.33184       -2.25843
O          4.45152       -1.20335       -0.80768
O         -4.18055        3.56646       -0.29143
H         -1.98280        4.51815       -1.35769
H         -3.75396        1.16178        0.61943
H         -1.67482       -0.04828        0.52165
H          3.99723        1.21380       -1.71529
H          2.27918       -2.17198        0.25855
H          0.15080       -1.05710        0.41240
H          5.23657       -0.80775       -1.21269
H         -4.29806        4.46077       -0.64250





