%chk=045-rad.chk
%nproc=8
%mem=30GB
#P UB3LYP/6-311++G(d,p) nosym  opt freq

Radical

-1 2
C         -1.45975        2.09114       -0.46096
C         -2.78066        1.42043       -0.43855
C         -2.94390        0.15435        0.01635
C         -1.71585       -0.55171        0.50660
C         -0.39623        0.11505        0.48098
C         -0.22710        1.37856        0.02509
O         -1.41481        3.23237       -0.88770
O         -1.77396       -1.69252        0.93569
C          1.20387        1.99181        0.03358
C          1.26883        3.43710       -0.51165
C          1.74415        2.02469        1.48184
C          2.13852        1.12944       -0.84601
C         -4.33162       -0.54869        0.03366
C         -5.47622        0.34196       -0.51500
C         -4.70640       -0.92972        1.48289
C         -4.28207       -1.81789       -0.84554
H         -3.61181        2.00524       -0.81080
H          0.44770       -0.45948        0.84741
H          0.93616        3.47945       -1.57105
H          2.31222        3.82061       -0.48278
H          0.65225        4.12495        0.10592
H          1.08666        2.64914        2.12464
H          2.76947        2.45371        1.51026
H          1.80104        1.01000        1.92651
H          3.16945        1.54549       -0.85216
H          2.20853        0.08547       -0.47746
H          1.76649        1.10330       -1.89315
H         -5.28767        0.62572       -1.57316
H         -5.59225        1.26301        0.09645
H         -6.44672       -0.20000       -0.48539
H         -4.75495       -0.02032        2.12011
H         -3.97808       -1.63013        1.93593
H         -5.69925       -1.42916        1.51272
H         -4.02258       -1.55094       -1.89290
H         -5.26851       -2.33053       -0.85104
H         -3.53738       -2.55275       -0.48255





