%chk=229.chk
%nproc=8
%mem=30GB
#P UB3LYP/6-311++G(d,p) nosym opt freq

Oxidized

0 1
C          5.77389       -5.13290        1.24176
C          6.78860       -5.03917        0.28743
C          6.69553       -4.10247       -0.74146
C          4.65966       -4.28584        1.16796
C          4.56868       -3.34957        0.13849
C          5.58771       -3.25708       -0.81831
C          3.59168       -4.39527        2.18439
C          2.43576       -3.47018        2.05328
C          2.35097       -2.57477        1.06774
C          3.40359       -2.45065        0.04685
O          3.67944       -5.22091        3.08545
O          3.29887       -1.61969       -0.84559
H          5.85613       -5.86792        2.04130
H          7.65251       -5.69803        0.34719
H          5.52239       -2.52816       -1.62474
Cl         1.18071       -3.58519        3.23110
H          7.48665       -4.03008       -1.48498
H          1.51002       -1.89794        0.96808







