%chk=287-an.chk
%nproc=8
%mem=30GB
#P UB3LYP/6-311++G(d,p) nosym opt freq SCF=YQC

Reduced

-2 1
C                 -0.3460170000      3.7997990000     -0.1498220000
C                 -1.5568550000      3.1935790000     -0.4219100000
C                 -1.5937440000      1.8384720000     -0.8340190000
C                  0.8788170000      3.0960630000     -0.2725480000
C                  0.8426150000      1.7172940000     -0.6940510000
C                 -0.4080840000      1.1311600000     -0.9625320000
C                  2.1295050000      3.7350160000      0.0151880000
C                  3.2981520000      2.9234350000     -0.1443420000
C                  3.3059900000      1.5914400000     -0.5427960000
C                  2.0672960000      0.9206250000     -0.8462360000
O                  2.2895200000      4.9620810000      0.4023750000
O                  2.0302600000     -0.2972040000     -1.2192490000
H                 -0.2940640000      4.8364140000      0.1675280000
H                 -2.4827060000      3.7561190000     -0.3203870000
H                 -2.5454600000      1.3586010000     -1.0492970000
H                 -0.4026690000      0.0926230000     -1.2780450000
O                  4.4607240000      3.5967650000      0.1492170000
C                  4.5957770000      0.8190520000     -0.6606990000
C                  5.1973090000      0.8153220000     -2.0810560000
C                  6.4937450000      0.0017250000     -2.1854480000
C                  7.1215640000     -0.0083340000     -3.5856920000
C                  8.4233920000     -0.8153220000     -3.6794910000
H                  4.0905540000      4.4798560000      0.3936620000
H                  4.3938070000     -0.2198790000     -0.3755980000
H                  5.3366670000      1.2316760000      0.0340910000
H                  5.3893830000      1.8503850000     -2.3895170000
H                  4.4487920000      0.4084000000     -2.7695920000
H                  6.2933860000     -1.0328160000     -1.8745160000
H                  7.2270840000      0.3976240000     -1.4683710000
H                  7.3155860000      1.0259580000     -3.9003280000
H                  6.3940970000     -0.4106570000     -4.3030970000
H                  8.2291650000     -1.8503220000     -3.3672540000
H                  9.1480970000     -0.4145750000     -2.9577410000
C                  9.0592150000     -0.8230240000     -5.0761980000
H                  9.2511890000      0.2117720000     -5.3901940000
H                  8.3380140000     -1.2282170000     -5.7985100000
C                 10.3638560000     -1.6256660000     -5.1614050000
H                 10.1739930000     -2.6610390000     -4.8487660000
H                 11.0862280000     -1.2214550000     -4.4398570000
C                 11.0017830000     -1.6334870000     -6.5569980000
C                 12.3035050000     -2.4371060000     -6.6364470000
H                 11.1939670000     -0.5993510000     -6.8705800000
H                 10.2811090000     -2.0373480000     -7.2796270000
H                 13.0647110000     -2.0362660000     -5.9570980000
H                 12.7307620000     -2.4222920000     -7.6448040000
H                 12.1438230000     -3.4879880000     -6.3685860000


