%chk=250.chk
%nproc=8
%mem=30GB
#P UB3LYP/6-311++G(d,p) nosym opt freq

Oxidized

0 1
C          6.25108       -5.55647        0.68830
C          7.04448       -5.33353       -0.43803
C          6.77972       -4.24752       -1.26922
C          5.18827       -4.69025        0.98663
C          4.92400       -3.61060        0.15963
C          5.72173       -3.38668       -0.97285
C          4.36323       -4.93207        2.17746
C          3.24967       -3.98017        2.49556
C          2.96232       -2.94310        1.67829
C          3.81457       -2.69567        0.46161
O          4.59668       -5.90867        2.88175
O          3.61048       -1.73591       -0.27561
H          7.86806       -6.00688       -0.66492
C          1.84480       -1.90909        1.78613
H          7.39584       -4.06942       -2.14777
C          2.54772       -4.28728        3.79045
C          0.63948       -2.15398        2.70114
C         -0.44519       -1.09082        2.48639
C         -1.61933       -1.29573        3.44550
H          6.46486       -6.40709        1.33375
H          5.52169       -2.53981       -1.62758
H          1.42765       -1.77187        0.77856
H          2.30277       -0.95064        2.06520
H          3.08774       -5.00890        4.41147
H          1.55560       -4.70816        3.60397
H          2.46775       -3.39104        4.41128
H          0.94734       -2.11087        3.74941
H          0.21224       -3.14387        2.50531
H         -0.80431       -1.13375        1.45100
H         -0.01630       -0.09302        2.63982
H         -1.25713       -1.25855        4.48018
H         -2.05215       -2.29147        3.29030
C         -2.69807       -0.23034        3.24355
C         -3.85142       -0.41526        4.23115
C         -4.92845        0.65351        4.03819
C         -6.06718        0.48188        5.04505
C         -7.14443        1.55109        4.85609
H         -3.07948       -0.28308        2.21661
H         -2.25945        0.76630        3.37515
H         -3.46627       -0.36644        5.25702
H         -4.29325       -1.41038        4.09888
H         -5.32653        0.59408        3.01794
H         -4.48333        1.64917        4.15442
H         -5.66699        0.54053        6.06462
H         -6.51316       -0.51349        4.92963
H         -7.55112        1.48727        3.83945
H         -6.69710        2.54682        4.96324
C         -8.27469        1.38616        5.87182
C         -9.34876        2.44628        5.68764
H         -7.87338        1.45441        6.88969
H         -8.72759        0.39334        5.76750
H         -8.93433        3.45127        5.81645
H        -10.14575        2.31045        6.42540
H         -9.79495        2.38345        4.69001







