%chk=048-rad-PCM.chk
%nproc=8
%mem=30GB
#P UB3LYP/6-311++G(d,p) SCRF=(PCM,Solvent=n,n-DiMethylFormamide)

Radical PCM in DMF 

-1 2
C                 -1.5179100000      0.3291200000      0.9024090000
C                 -1.9966420000      1.4667350000      0.3019080000
C                 -1.0703610000      2.3865020000     -0.3508830000
O                 -1.4721230000      3.4468800000     -0.9164170000
C                  0.3288690000      2.0213510000     -0.3166990000
C                  0.8076000000      0.8837410000      0.2838120000
C                 -0.1186830000     -0.0360510000      0.9365590000
O                  0.2830700000     -1.0964560000      1.5020510000
H                  0.9955770000      2.7228420000     -0.8094420000
C                  2.2695410000      0.4975960000      0.3223030000
C                  3.2523750000      1.4552170000     -0.3549850000
C                  4.7072370000      0.9794510000     -0.2619240000
C                  5.7102460000      1.9269050000     -0.9319660000
C                  7.1627160000      1.4433880000     -0.8346790000
C                  8.2242660000      2.4069670000     -1.3989620000
C                  9.6388600000      1.9141340000     -1.0610440000
C                  8.0789410000      2.6218600000     -2.9125490000
C                 -3.4585930000      1.8528500000      0.2633470000
C                 -4.4411200000      0.8967590000      0.9432400000
C                 -5.8959250000      1.3727790000      0.8505590000
C                 -6.8986620000      0.4267570000      1.5230250000
C                 -8.3510610000      0.9105770000      1.4261650000
C                 -9.4124540000     -0.0517750000      1.9928330000
C                -10.8271680000      0.4409830000      1.6553140000
C                 -9.2659430000     -0.2643520000      3.5066330000
H                 -2.1846080000     -0.3723470000      1.3951950000
H                  2.3710940000     -0.5038870000     -0.1167930000
H                  2.5587430000      0.3564880000      1.3722670000
H                  3.1713450000      2.4516540000      0.0970440000
H                  2.9822220000      1.5793180000     -1.4110960000
H                  4.7925530000     -0.0166090000     -0.7165220000
H                  4.9803270000      0.8527020000      0.7941630000
H                  5.6300930000      2.9204720000     -0.4706390000
H                  5.4258650000      2.0562620000     -1.9826540000
H                  7.2590150000      0.4735450000     -1.3432630000
H                  7.3955950000      1.2530400000      0.2210430000
H                  8.0828230000      3.3794690000     -0.9067910000
H                  9.7732410000      1.8004340000      0.0190640000
H                 10.4022030000      2.6104540000     -1.4235270000
H                  9.8323350000      0.9394240000     -1.5236250000
H                  8.8477630000      3.3050780000     -3.2879870000
H                  7.1057400000      3.0430890000     -3.1740870000
H                  8.1866900000      1.6723920000     -3.4499670000
H                 -3.7484570000      1.9916560000     -0.7867640000
H                 -3.5597700000      2.8552970000      0.7002700000
H                 -4.1700400000      0.7745430000      1.9993350000
H                 -4.3608200000     -0.1005440000      0.4929990000
H                 -6.1698440000      1.4978080000     -0.2055200000
H                 -5.9805790000      2.3696350000      1.3035290000
H                 -6.6134320000      0.2990540000      2.5736840000
H                 -6.8192190000     -0.5676010000      1.0632820000
H                 -8.5847480000      1.0993330000      0.3703350000
H                 -8.4466370000      1.8812510000      1.9332980000
H                 -9.2717320000     -1.0250920000      1.5020660000
H                -11.5904340000     -0.2545280000      2.0195090000
H                -10.9624020000      0.5530410000      0.5751400000
H                -11.0199520000      1.4164730000      2.1165330000
H                -10.0346790000     -0.9467270000      3.8837770000
H                 -9.3729290000      0.6859890000      4.0426590000
H                 -8.2926640000     -0.6854970000      3.7680180000





