%chk=237-PCM.chk
%nproc=8
%mem=30GB
#P UB3LYP/6-311++G(d,p) SCRF=(PCM,Solvent=n,n-DiMethylFormamide)

Quinone PCM in DMF 

0 1
C                  5.7698950000     -5.2881140000      1.2474400000
C                  6.7434180000     -5.1503550000      0.2665560000
C                  6.6272840000     -4.1455210000     -0.6882900000
C                  4.6831330000     -4.4162820000      1.2658370000
C                  4.5592030000     -3.3922000000      0.2971990000
C                  5.5499990000     -3.2498890000     -0.7031830000
C                  3.6605350000     -4.6039800000      2.3419720000
C                  2.5083380000     -3.6784880000      2.3585640000
C                  2.3836170000     -2.7077280000      1.4468510000
C                  3.3752020000     -2.4861230000      0.3622040000
O                  3.7595570000     -5.4839480000      3.1823640000
O                  3.1814120000     -1.5747190000     -0.4294800000
H                  5.8300500000     -6.0590830000      2.0051970000
C                  5.5147300000     -2.1948080000     -1.7804600000
H                  7.5931080000     -5.8233030000      0.2429380000
H                  7.3926820000     -4.0456920000     -1.4503240000
H                  1.7821460000     -3.8370550000      3.1483530000
H                  1.5460570000     -2.0185220000      1.4423820000
H                  5.5012710000     -1.1882280000     -1.3579470000
H                  4.6133350000     -2.2730720000     -2.3913380000
H                  6.3893270000     -2.2953020000     -2.4261480000





