%chk=106-PCM.chk
%nproc=8
%mem=30GB
#P UB3LYP/6-311++G(d,p) SCRF=(PCM,Solvent=n,n-DiMethylFormamide)

Quinone PCM in DMF 

0 1
C                 -0.7596110000     -1.6910840000      3.5919200000
C                  0.3177420000     -2.4557800000      2.8961190000
C                  0.4053860000     -2.3063760000      1.5620300000
C                 -0.4940480000     -1.4368390000      0.7507220000
C                 -1.5349660000     -0.6991660000      1.4261170000
C                 -1.6928540000     -0.7952670000      2.7788270000
O                 -0.9333790000     -1.7485230000      4.7996160000
O                 -0.3160280000     -1.3798210000     -0.4660130000
N                 -2.6026300000     -0.1846600000      3.5682540000
C                 -3.6880840000      0.7569940000      3.2230710000
C                 -4.3817280000      1.0987310000      4.5517740000
C                 -4.7079390000      0.0920850000      2.2784360000
C                 -3.1151000000      2.0477350000      2.6064680000
H                 -2.1628360000     -0.0826570000      0.8005180000
H                 -2.4984180000     -0.4307870000      4.5460490000
H                 -3.6817780000      1.5661620000      5.2504310000
H                 -4.7945610000      0.2007860000      5.0205830000
H                 -5.2028040000      1.7970630000      4.3792010000
H                 -5.1218070000     -0.8087290000      2.7380840000
H                 -4.2660500000     -0.1898300000      1.3224370000
H                 -5.5302760000      0.7830460000      2.0754840000
H                 -2.4132440000      2.5209340000      3.2974920000
H                 -3.9251960000      2.7528850000      2.4030740000
H                 -2.5912550000      1.8623110000      1.6684210000
C                  1.2521400000     -3.3552240000      3.7176390000
C                  0.4309740000     -4.4538460000      4.4367530000
C                  2.2866750000     -4.0511130000      2.8136340000
C                  2.0225270000     -2.5061230000      4.7588270000
H                  1.1538620000     -2.8200970000      0.9725220000
H                 -0.2805590000     -4.0288490000      5.1432330000
H                  1.1081390000     -5.1134830000      4.9873880000
H                 -0.1164520000     -5.0658340000      3.7137360000
H                  1.8126530000     -4.6946950000      2.0674490000
H                  2.9330480000     -4.6814930000      3.4292550000
H                  2.9260230000     -3.3328250000      2.2930640000
H                  1.3492620000     -2.0347360000      5.4733390000
H                  2.6112180000     -1.7268720000      4.2657130000
H                  2.7147860000     -3.1476440000      5.3120850000





