%chk=225-rad.chk
%nproc=8
%mem=30GB
#P UB3LYP/6-311++G(d,p) nosym opt freq

Radical

-3 2
 O                  5.86924800   -1.63020700    1.23517000
 S                  5.46208700   -0.88026400    0.00688300
 O                  6.20658700    0.40808100   -0.14410500
 O                  5.46586400   -1.71538700   -1.22629800
 C                  3.72309700   -0.39680300    0.29587200
 C                  3.43507700    0.41400400    1.41867800
 C                  2.13710400    0.80059200    1.67305600
 C                  1.06526800    0.40785000    0.83597500
 C                 -0.29465500    0.85224500    1.16036000
 O                 -0.52973400    1.57490800    2.16633900
 C                 -1.35648200    0.40940900    0.25198700
 C                 -2.70074300    0.79672800    0.49622600
 C                 -3.72309100    0.39680700   -0.33952900
 C                 -3.43507600   -0.41400200   -1.46232600
 C                 -2.13709900   -0.80059300   -1.71670200
 C                 -1.06526900   -0.40785100   -0.87962200
 C                  0.29466000   -0.85224400   -1.20400800
 O                  0.52973600   -1.57490300   -2.20999000
 C                  1.35648300   -0.40940500   -0.29563600
 C                  2.70074700   -0.79672000   -0.53987900
 S                 -5.46209500    0.88025800   -0.05052400
 O                 -5.86930900    1.63008500   -1.27886000
 O                 -6.20656500   -0.40808800    0.10059800
 O                 -5.46585100    1.71548900    1.18258300
 H                  4.24579400    0.72303200    2.06905400
 H                  1.89434100    1.42210400    2.52824900
 H                 -2.91226400    1.41713900    1.35761200
 H                 -4.24578900   -0.72302900   -2.11270600
 H                 -1.89433700   -1.42210700   -2.57189400
 H                  2.91226400   -1.41712600   -1.40127000







