%chk=106.chk
%nproc=8
%mem=30GB
#P UB3LYP/6-311++G(d,p) nosym opt freq

Oxidized

0 1
C         -0.75691       -1.70493        3.56733
C          0.33232       -2.46424        2.86667
C          0.42301       -2.32605        1.53382
C         -0.48219       -1.48551        0.73682
C         -1.56227       -0.78702        1.43835
C         -1.73183       -0.86618        2.76099
O         -0.88761       -1.73355        4.79098
O         -0.33922       -1.37983       -0.47460
N         -2.72046       -0.25463        3.52556
C         -3.73011        0.75404        3.21743
C         -4.45532        1.09567        4.53501
C         -4.76870        0.20127        2.23380
C         -3.07889        2.03399        2.68066
H         -2.20937       -0.20529        0.79870
H         -2.55255       -0.42066        4.52520
H         -3.75645        1.49207        5.28120
H         -4.92552        0.20589        4.97040
H         -5.23802        1.84628        4.37757
H         -5.19527       -0.74073        2.59778
H         -4.34476        0.00510        1.24554
H         -5.59306        0.90988        2.09322
H         -2.30898        2.40393        3.36778
H         -3.82215        2.82893        2.55068
H         -2.60066        1.87889        1.70913
C          1.27606       -3.34618        3.71102
C          0.47873       -4.43280        4.46430
C          2.32892       -4.09639        2.85342
C          2.06846       -2.48538        4.71773
H          1.17650       -2.82594        0.93680
H         -0.19135       -4.01607        5.22177
H          1.15112       -5.12211        4.98900
H         -0.12896       -5.02721        3.77195
H          1.85390       -4.76252        2.12360
H          2.97845       -4.71963        3.48021
H          2.98070       -3.39980        2.31319
H          1.42739       -2.02264        5.47360
H          2.61375       -1.68302        4.20697
H          2.80413       -3.09125        5.26017






