%chk=060-an-PCM.chk
%nproc=8
%mem=30GB
#P UB3LYP/6-311++G(d,p) SCRF=(PCM,Solvent=n,n-DiMethylFormamide)

Reduced 

-2 1
C                 -0.4412940000      1.2175310000     -0.3005020000
C                 -1.4731920000      0.2174360000     -0.5051700000
C                 -1.2579930000     -1.1363020000     -0.4403330000
C                  0.0231750000     -1.7602380000     -0.1681080000
C                  1.0091170000     -0.7833420000      0.0977040000
C                  0.8531910000      0.6459070000      0.0725290000
O                 -0.7229090000      2.4570370000     -0.3723870000
O                  0.1757140000     -3.0385570000     -0.2197220000
C                  1.8798460000      1.5480170000      0.5927270000
C                  2.5948660000      1.1633910000      1.9069220000
O                  2.1594100000      2.6620300000      0.1344750000
H                  2.2439810000      0.2272130000      2.3400160000
H                  2.4079540000      1.9889890000      2.6050090000
H                  3.6770210000      1.0984830000      1.7472390000
H                 -2.0727020000     -1.8315650000     -0.6469640000
Cl                 2.7019980000     -1.4585490000      0.2034910000
H                 -2.4617520000      0.6091360000     -0.7445240000





