%chk=145-an.chk
%nproc=8
%mem=30GB
#P UB3LYP/6-311++G(d,p) nosym opt freq

Reduced

-2 1
C                 -4.9630800000     -0.4477950000     -0.3170410000
C                 -3.6324690000     -0.3778810000      0.3987630000
O                 -3.3834690000     -0.9499310000      1.4344150000
O                 -2.5755840000     -1.8542920000     -1.4530810000
C                 -1.3052810000     -1.7418830000     -1.3577410000
C                 -0.4313050000     -2.6771400000     -1.9592800000
C                  0.9640280000     -2.5878800000     -1.8572840000
C                  1.5551650000     -1.5764210000     -1.1449110000
O                  2.9741040000     -1.4934810000     -1.2167910000
C                  3.7204030000     -1.8168350000     -0.1464910000
C                  5.0979800000     -1.2060260000     -0.2810590000
O                  3.3798940000     -2.5284140000      0.7699640000
C                  0.7948650000     -0.5580150000     -0.4962820000
C                  1.4500610000      0.5247180000      0.2414830000
O                  2.7069970000      0.5877950000      0.4187860000
C                  0.5843020000      1.5628830000      0.7747370000
C                  1.1543750000      2.6617980000      1.4529080000
C                  0.3876610000      3.6869330000      1.9712800000
C                 -1.0258240000      3.6338570000      1.8210450000
C                 -1.6208680000      2.5774460000      1.1747360000
C                 -0.8483430000      1.5002600000      0.6294970000
C                 -1.4145330000      0.4145810000     -0.0353440000
O                 -2.8164890000      0.4827310000     -0.2429180000
C                 -0.6502600000     -0.6229720000     -0.6163760000
H                 -4.7955200000     -1.0671720000     -1.2008600000
H                 -5.2827990000      0.5472920000     -0.6394530000
H                 -5.7133470000     -0.8998580000      0.3335910000
H                 -0.8933050000     -3.4927860000     -2.5089200000
H                  1.6034080000     -3.3194360000     -2.3459180000
H                  4.9819780000     -0.1489050000     -0.0301390000
H                  5.4593810000     -1.2816230000     -1.3101410000
H                  5.7921410000     -1.6892300000      0.4081630000
H                  2.2354320000      2.6606770000      1.5469540000
H                  0.8529760000      4.5221290000      2.4889480000
H                 -1.6436240000      4.4334020000      2.2259770000
H                 -2.6990530000      2.5414730000      1.0687860000


