%chk=050-rad.chk
%nproc=8
%mem=30GB
#P UB3LYP/6-311++G(d,p) nosym opt freq SCF=YQC Int=Acc2E=11

Radical

-1 2
 C                  7.20716600    1.18680700    0.26261400
 C                  8.30486800    1.01460900    1.21083000
 C                  8.89914000   -0.22050800    1.38425700
 C                  8.46579100   -1.38848500    0.62630900
 C                  7.36747300   -1.21745400   -0.31925300
 C                  6.77863600    0.02003600   -0.49711200
 O                  6.63650900    2.31595400    0.09765800
 O                  9.03578600   -2.51575100    0.79343200
 C                  5.64434500    0.24549500   -1.48558500
 C                  6.92270800   -2.44398700   -1.08376500
 C                  8.74263800    2.24654500    1.97439400
 C                 10.03360300   -0.45681000    2.35303400
 C                  4.28624400    0.13930000   -0.83317500
 H                  5.73149600   -0.43833900   -2.33607500
 H                  5.74632800    1.27093500   -1.86699800
 H                  7.45805400   -3.31704100   -0.70068700
 H                  7.13997400   -2.36118200   -2.16041900
 H                  5.84234500   -2.61662300   -0.98682800
 H                  8.15443700    3.10286100    1.63373900
 H                  9.80818500    2.47104000    1.82112600
 H                  8.59241900    2.13742100    3.05911400
 H                 10.22465000    0.41204100    2.99064500
 H                 10.96291500   -0.70379200    1.81915900
 H                  9.82094800   -1.32529300    2.98905600
 C                  3.21376500   -0.58512800   -1.20379200
 C                  3.16704800   -1.48911200   -2.41677000
 C                  1.93699500   -0.53364300   -0.38326400
 C                  0.73487300    0.11439800   -1.10239200
 C                 -0.52235400    0.16774400   -0.22136500
 C                 -1.80514200    0.67637000   -0.91475400
 C                 -3.02340200    0.47762700    0.01329200
 C                 -4.39705400    0.73398600   -0.62684900
 C                 -5.56149500    0.41822300    0.32513100
 C                 -6.97572900    0.53692100   -0.28392700
 C                 -8.02433100   -0.01854100    0.70446700
 C                 -9.44819600   -0.17243900    0.14703600
 C                 -1.66598000    2.13762400   -1.37499100
 C                -10.40937600   -0.82866900    1.15037800
 C                -11.83225300   -1.10637900    0.62288200
 C                -12.59466700    0.18151000    0.27063500
 C                -12.63009000   -1.94031000    1.63847800
 H                  4.19649100    0.75359900    0.06377500
 H                  4.15012200   -1.62619500   -2.87389200
 H                  2.49561900   -1.09508100   -3.19458600
 H                  2.78223500   -2.48452300   -2.14659100
 H                  2.12925600    0.01778500    0.54679100
 H                  1.64905900   -1.55702800   -0.08575600
 H                  0.50341800   -0.44626600   -2.02025000
 H                  1.02712100    1.12403000   -1.41893900
 H                 -0.32073100    0.79513100    0.66164800
 H                 -0.71725100   -0.84435300    0.16551700
 H                 -1.96626400    0.05284100   -1.81050800
 H                 -2.90827600    1.12674400    0.89617900
 H                 -3.00479100   -0.55504200    0.39308600
 H                 -4.49378400    0.11437500   -1.53262600
 H                 -4.46138700    1.77719500   -0.95854100
 H                 -5.49688800    1.07470400    1.20775300
 H                 -5.43253200   -0.60751000    0.70205100
 C                 -7.29788200    1.97916800   -0.71135000
 H                 -8.05182500    0.62813700    1.59615900
 H                 -7.68145100   -1.00322900    1.05588500
 H                 -9.41247700   -0.78226600   -0.76957800
 H                 -9.83907600    0.80833700   -0.15001700
 H                 -0.81703200    2.26591900   -2.05457100
 H                 -1.50391100    2.80074500   -0.51333500
 H                 -2.56089600    2.48750500   -1.90290400
 H                -10.48113300   -0.19850600    2.05149500
 H                 -9.97069800   -1.78175700    1.48235900
 H                -11.73496700   -1.70358600   -0.29813500
 H                -12.09143200    0.75848100   -0.51320600
 H                -12.69226600    0.82949100    1.15307200
 H                -13.60696200   -0.04715000   -0.08649200
 H                -12.12181500   -2.88543600    1.86759800
 H                -13.63153000   -2.18059200    1.25906600
 H                -12.75507100   -1.39229100    2.58269100
 H                 -7.00195100   -0.09785000   -1.18557900
 H                 -7.28039800    2.65321200    0.15696500
 H                 -8.28872100    2.05589600   -1.17331400
 H                 -6.57220400    2.35700100   -1.43958400































