%chk=292.chk
%nproc=8
%mem=30GB
#P UB3LYP/6-311++G(d,p) nosym opt freq SCRF=(PCM,Solvent=n,n-DiMethylFormamide)

Oxidized

0 1
C                  0.9245440000      2.1600700000     -1.4316230000
C                  1.0715310000      3.2156450000     -0.5369840000
C                  1.8783500000      3.0658780000      0.5924250000
C                  1.5871640000      0.9535540000     -1.1937170000
C                  2.3995710000      0.7998030000     -0.0582220000
C                  2.5400020000      1.8628590000      0.8320930000
C                  1.4416800000     -0.1740500000     -2.1319370000
C                  2.1753370000     -1.4382350000     -1.8343260000
C                  2.9566380000     -1.6132190000     -0.7402550000
C                  3.1173590000     -0.4928600000      0.2098080000
O                  0.7534800000     -0.1396800000     -3.1457110000
O                  3.8203180000     -0.6095210000      1.2042830000
O                  1.9890270000     -2.4042370000     -2.7479430000
H                  0.3040240000      2.2522460000     -2.3145880000
H                  0.5595420000      4.1535930000     -0.7180540000
H                  1.9917180000      3.8895840000      1.2880900000
H                  3.1694050000      1.7299580000      1.7032240000
H                  1.3832190000     -2.0311550000     -3.4164380000
C                  3.6932860000     -2.8953570000     -0.4704040000
C                  5.1331150000     -2.8673300000     -1.0295910000
C                  5.8993270000     -4.1990920000     -0.8540070000
C                  7.2162210000     -4.1624190000     -1.6159140000
C                  8.2559140000     -3.2991670000     -1.2438800000
C                  7.4225340000     -4.9852510000     -2.7267740000
C                  9.4544230000     -3.2562920000     -1.9493860000
C                  9.6352520000     -4.0974060000     -3.0471310000
C                  8.6202540000     -4.9620110000     -3.4401010000
H                  3.1452920000     -3.7254350000     -0.9241770000
H                  3.7205480000     -3.0506740000      0.6093790000
H                  5.6885850000     -2.0585060000     -0.5439350000
H                  5.0925840000     -2.6286500000     -2.0968620000
H                  5.2897920000     -4.9866650000     -1.3139610000
C                  6.1065520000     -4.5753500000      0.6248910000
H                  8.1317410000     -2.6379510000     -0.3930710000
H                  6.6350380000     -5.6624510000     -3.0420200000
H                  8.7750480000     -5.6019770000     -4.3005170000
O                 10.7729570000     -4.0416200000     -3.8351020000
C                 12.0281210000     -4.0914350000     -3.2637850000
C                 12.3023690000     -4.7891420000     -2.0868130000
C                 13.0536960000     -3.4597000000     -3.9677260000
C                 14.3584330000     -3.5237660000     -3.4876410000
C                 13.6131560000     -4.8397440000     -1.6146140000
C                 14.6454780000     -4.2103410000     -2.3076390000
H                 10.2434940000     -2.5751390000     -1.6539700000
H                  5.1530490000     -4.7211310000      1.1379790000
H                  6.6548370000     -3.7956350000      1.1614940000
H                  6.6758010000     -5.5044340000      0.7094940000
H                 11.5044210000     -5.2868300000     -1.5505090000
H                 12.8123540000     -2.9308110000     -4.8818190000
H                 15.1527650000     -3.0311230000     -4.0371980000
H                 13.8253160000     -5.3832610000     -0.7005570000
H                 15.6616570000     -4.2555870000     -1.9341550000


