%chk=055.chk
%nproc=8
%mem=30GB
#P UB3LYP/6-311++G(d,p) nosym opt freq Int=Acc2E=11

Oxidized

0 1
C                 -1.45036600    0.21488600   -0.18936000
 C                 -0.99642100   -1.03932700   -0.37415200
 C                  0.41726100   -1.37344500   -0.02173300
 C                  1.35628000   -0.28347600    0.38385800
 C                  0.96366600    1.00152300    0.29477700
 C                 -0.48079200    1.32016800    0.07982200
 O                 -0.86766100    2.48027900    0.12386200
 O                  0.80396600   -2.53364100   -0.06501900
 C                  1.91612700    2.16231600    0.42610200
 C                  2.72745200   -0.69233200    0.85782200
 C                  3.68481100    0.47449100    1.00887100
 C                  3.30297100    1.75405800    0.88524500
 C                 -2.91103600    0.57905200   -0.26455800
 C                 -3.78598500   -0.54609900   -0.78349500
 C                 -3.32755600   -1.78734400   -1.00159300
 C                 -1.85905000   -2.15502200   -0.90619000
 H                  1.49215800    2.87185900    1.14799400
 C                  2.00735900    2.91451500   -0.93232700
 H                  3.14052700   -1.40556000    0.13325200
 C                  2.60355600   -1.45484600    2.20784500
 C                  5.10576800    0.08372100    1.36101700
 C                  4.24653600    2.90993200    1.14865900
 C                 -5.23918600   -0.17121800   -0.99189900
 C                 -4.23814400   -2.92642900   -1.41286300
 C                 -1.33193200   -2.59814100   -2.30087800
 H                  2.42082900    2.25541400   -1.70081600
 H                  2.66037100    3.78506200   -0.84476000
 H                  1.02572100    3.26398900   -1.25008300
 H                  2.19010000   -0.79567400    2.97628100
 H                  3.58380300   -1.79681600    2.54567300
 H                  1.96253900   -2.32936900    2.10297300
 H                  5.34349400   -0.90491400    0.95779500
 H                  5.26533500    0.03199300    2.44444200
 H                  5.83575000    0.78580300    0.95625700
 H                  4.96965200    2.67792000    1.93153400
 H                  3.68956000    3.79516600    1.46901900
 H                  4.81154200    3.19634800    0.25385800
 H                 -5.33047000    0.89055700   -1.23846400
 H                 -5.84462900   -0.34237100   -0.09407900
 H                 -5.69482900   -0.73607200   -1.80612000
 H                 -5.23479100   -2.83043900   -0.98030200
 H                 -3.82808700   -3.88486000   -1.08153400
 H                 -4.35689300   -2.99051200   -2.50085900
 C                 -3.40579000    1.03119000    1.13906400
 H                 -3.01239400    1.44859400   -0.92632100
 H                 -1.74687500   -3.02037700   -0.24067300
 H                 -1.41269800   -1.77273600   -3.01371200
 H                 -1.91869800   -3.43557000   -2.68347400
 H                 -0.29262000   -2.91876100   -2.23991200
 H                 -3.32469400    0.20514500    1.85111900
 H                 -4.45211900    1.33981300    1.09509000
 H                 -2.82319100    1.87667600    1.50300900


