%chk=005-rad.chk
%nproc=8
%mem=30GB
#P UB3LYP/6-311++G(d,p) nosym  opt freq

Radical

-1 2
C                  2.2551760000     -0.0702820000      0.0791920000
C                  0.7539460000      0.0378050000      0.0302610000
C                  0.1123750000      1.2465190000      0.0817290000
C                 -1.3283420000      1.3864980000      0.0370420000
O                 -1.9067340000      2.5077590000      0.0853420000
C                 -2.0693380000      0.1444040000     -0.0676770000
C                 -1.4247160000     -1.0591100000     -0.1186830000
Br                -2.4795050000     -2.6827510000     -0.2586340000
C                  0.0171110000     -1.2239400000     -0.0755980000
O                  0.6063460000     -2.3324100000     -0.1228310000
H                  2.5757020000     -0.6818900000      0.9290540000
H                  2.7155680000      0.9184130000      0.1584420000
H                  2.6405100000     -0.5722880000     -0.8144490000
H                  0.6816810000      2.1694380000      0.1603000000
H                 -3.1497820000      0.2118360000     -0.1034920000


