%chk=193.chk
%nproc=8
%mem=30GB
#P UB3LYP/6-311++G(d,p) nosym opt freq

Oxidized

0 1
C    5.3281102    4.5360325   -1.6862332
  O    4.5741702    3.4240307   -1.2378850
  C    5.1597133    2.1744769   -1.1883418
  C    6.4679129    1.9942948   -1.5691594
  C    7.0363123    0.7331928   -1.5119443
  C    6.3202979   -0.3505088   -1.0809362
  C    5.0082744   -0.1827254   -0.6964995
  C    4.2410659   -1.3258064   -0.2375566
  O    4.7213285   -2.4886235   -0.1707774
  C    2.8381151   -1.0815072    0.1617275
  C    2.0788564   -2.1470625    0.6045791
  O    2.6796040   -3.3738674    0.6441875
  C    0.7367829   -1.9508009    0.9951229
  C    0.0274879   -3.1662482    1.4503695
  C   -1.2223589   -2.8414977    2.1715510
  O   -2.3647627   -3.2411966    1.4448972
  C   -1.4231279   -1.4136394    2.5543265
  C   -1.2379696   -0.4906154    1.3490630
  O   -2.0622365   -0.8081298    0.2989495
  C   -2.8920432    0.2352723   -0.0859739
  C   -2.5381630    0.6026468   -1.5068779
  C   -3.7884015    1.0533805   -2.2491695
  N   -3.5064509    1.8244491   -3.4204365
  C   -4.7236859    1.7822913   -1.3415868
  O   -4.0569559    2.9176433   -0.8380509
  C   -5.1332710    0.8974893   -0.2030730
  C   -5.2080256    1.7660392    1.0711107
  O   -4.2292998   -0.0720718    0.0496329
  C    0.1898223   -0.7098569    0.9345943
  C    0.9418939    0.3856195    0.4881819
  O    0.3147986    1.5763360    0.4628118
  C    2.2673939    0.1621278    0.1085471
  C    3.0505253    1.2848824   -0.3515899
  O    2.5866606    2.4466437   -0.4232875
  C    4.4429142    1.0804567   -0.7550224
  C   -1.1988750   -3.6233584    3.4618793
  C   -2.2772201   -4.6029664    3.7530449
  O   -0.3203418   -3.4777220    4.2777850
  H    4.6933326    5.4245121   -1.8417390
  H    5.8220360    4.3365439   -2.6736474
  H    6.1872377    4.7577421   -0.9890136
  H    7.0742321    2.8370226   -1.9201098
  H    8.0706354    0.5887300   -1.8126757
  H    6.7280163   -1.3553878   -1.0210857
  H    2.3219418   -4.2513776    0.9196974
  H    0.7463272   -3.7685218    2.0563096
  H   -0.2251229   -3.7680289    0.5357655
  H   -2.1641425   -3.2993779    0.4685140
  H   -0.6149919   -1.1409300    3.2732256
  H   -2.4063835   -1.3009795    3.0106931
  H   -1.3707268    0.5445752    1.7294931
  H   -2.6693517    1.0970878    0.5694922
  H   -1.8478648    1.4580306   -1.4806652
  H   -2.0261132   -0.2447027   -1.9844755
  H   -4.2959333    0.1085256   -2.5787413
  H   -3.4597210    2.8480310   -3.2559432
  H   -4.1449094    1.5736962   -4.2331220
  H   -5.6078238    2.0959097   -1.9507061
  H   -4.7219587    3.6322927   -0.6599977
  H   -6.1673283    0.5106607   -0.3967098
  H   -4.3713996    2.5045869    1.0639680
  H   -5.0080837    1.1068796    1.9417839
  H   -6.1954312    2.2586889    1.1637452
  H    0.5350576    2.4778882    0.2229215
  H   -2.6940806   -5.0095626    2.8077049
  H   -1.8988124   -5.4180651    4.4197584
  H   -3.1174887   -4.1335709    4.3103411







