%chk=264-an.chk
%nproc=8
%mem=30GB
#P UB3LYP/6-311++G(d,p) nosym opt freq SCRF=(PCM,Solvent=n,n-DiMethylFormamide)

Reduced

-2 1
C                  4.8107760000     -0.6218120000      0.1861410000
C                  3.4728310000     -0.3688970000     -0.5256430000
O                  3.4522430000     -0.2148720000     -1.7614720000
O                  2.6022560000     -1.5636770000     -0.0111670000
C                  1.2616400000     -1.3942430000     -0.1219160000
C                  0.4085300000     -2.4695740000     -0.3016350000
C                 -0.9974380000     -2.2904280000     -0.3442180000
C                 -1.5616150000     -1.0306840000     -0.2388340000
O                 -2.8998490000     -0.8417400000     -0.3475850000
C                 -3.4725880000      0.3691700000      0.4615410000
C                 -4.8108340000      0.6217250000     -0.2498470000
O                 -3.4516250000      0.2154860000      1.6973970000
C                 -0.7053040000      0.0906490000     -0.0603700000
C                 -1.2615930000      1.3942030000      0.0575010000
O                 -2.6023530000      1.5635950000     -0.0535640000
C                 -0.4085970000      2.4695390000      0.2373050000
C                  0.9974070000      2.2903840000      0.2800310000
C                  1.5615590000      1.0306460000      0.1746280000
O                  2.8997500000      0.8417480000      0.2836370000
C                  0.7052750000     -0.0907300000     -0.0040250000
H                  5.2537870000     -1.5291610000     -0.2333520000
H                  5.4709380000      0.2255930000     -0.0179260000
H                  4.6848340000     -0.7386670000      1.2648640000
H                  0.8369940000     -3.4628540000     -0.3994920000
H                 -1.6545960000     -3.1457340000     -0.4721000000
H                 -4.6854650000      0.7368430000     -1.3288210000
H                 -5.2530850000      1.5299980000      0.1684800000
H                 -5.4713530000     -0.2249700000     -0.0440390000
H                 -0.8370940000      3.4627970000      0.3351800000
H                  1.6545680000      3.1456660000      0.4080380000


