%chk=346-an.chk
%nproc=8
%mem=30GB
#P UB3LYP/6-311++G(d,p) nosym opt freq SCF=YQC

Reduced

-2 1
O                 -0.0512440000     -1.1937060000      1.2839280000
C                 -0.4564300000     -0.3764480000      0.3812460000
C                 -1.9316510000     -0.2348880000      0.2173700000
C                 -2.7490380000     -1.0316490000      1.0636620000
C                 -4.1361950000     -0.9864300000      1.0065400000
C                 -4.7901140000     -0.1516500000      0.0900210000
C                 -4.0032480000      0.6321430000     -0.7641780000
C                 -2.6111310000      0.5953080000     -0.7129990000
C                  0.4564110000      0.3761600000     -0.4818670000
O                  0.0511080000      1.1938670000     -1.3841090000
C                  1.9316430000      0.2348230000     -0.3178670000
C                  2.7490070000      1.0317320000     -1.1640540000
C                  4.1361660000      0.9865490000     -1.1069560000
C                  4.7901350000      0.1516740000     -0.1905600000
C                  4.0033000000     -0.6322050000      0.6635870000
C                  2.6111850000     -0.5954280000      0.6124270000
H                 -2.2354290000     -1.6824540000      1.7617890000
H                 -4.7230900000     -1.6086880000      1.6811400000
H                 -5.8768880000     -0.1076010000      0.0499150000
H                 -4.4877300000      1.2874140000     -1.4865350000
H                 -2.0080890000      1.1946370000     -1.3804200000
H                  2.2353410000      1.6825890000     -1.8620930000
H                  4.7230410000      1.6089420000     -1.7814390000
H                  5.8769220000      0.1076830000     -0.1504280000
H                  4.4878490000     -1.2874840000      1.3858950000
H                  2.0081700000     -1.1948900000      1.2797690000


