%chk=055-an.chk
%nproc=8
%mem=30GB
#P UB3LYP/6-311++G(d,p) nosym opt freq

Reduced

-2 1
  	C   -1.4576671    0.2205511   -0.2391616
  C   -1.0229151   -1.0524312   -0.3436557
  C    0.4089087   -1.3563665   -0.0221456
  C    1.3837620   -0.2788553    0.3428046
  C    0.9739533    1.0066117    0.3362277
  C   -0.4722896    1.3033300    0.0789244
  O   -0.8602449    2.4602827    0.1325240
  O    0.7923533   -2.5155770   -0.0556590
  C    1.9275747    2.1724245    0.5998897
  C    2.8108733   -0.6790944    0.7075220
  C    3.7656131    0.4775136    0.9689127
  C    3.3617739    1.7763129    0.9460809
  C   -2.9224728    0.6019230   -0.4360277
  C   -3.8421355   -0.5371277   -0.8536149
  C   -3.4052861   -1.8194043   -0.9777767
  C   -1.9420881   -2.2010013   -0.7607150
  H    1.5198135    2.7437895    1.4619461
  C    1.9610303    3.0814129   -0.6539176
  H    3.2229621   -1.2668320   -0.1414956
  C    2.7637697   -1.5491305    1.9900017
  C    5.2141075    0.1180326    1.2542100
  C    4.3231035    2.9158590    1.2742640
  C   -5.2908053   -0.1777343   -1.1381313
  C   -4.3599432   -2.9556104   -1.3356727
  C   -1.3994727   -2.8216493   -2.0721175
  H    2.4033886    2.5322014   -1.5131848
  H    2.5434263    4.0056838   -0.4768839
  H    0.9623132    3.4395113   -0.9615195
  H    2.3563381   -0.9547771    2.8366693
  H    3.7638699   -1.9227145    2.2839065
  H    2.1367807   -2.4525067    1.8780401
  H    5.4036338   -0.9711624    1.1729224
  H    5.4986637    0.4400907    2.2780835
  H    5.8755822    0.6018628    0.5046337
  H    5.3380382    2.6018519    1.5786873
  H    3.9079815    3.5073380    2.1168055
  H    4.4705653    3.5812118    0.4026002
  H   -5.4797317    0.9117609   -1.0595141
  H   -5.9656506   -0.6951435   -0.4240713
  H   -5.5498487   -0.4601356   -2.1805569
  H   -5.4221105   -2.6652445   -1.4297716
  H   -4.3120890   -3.7309179   -0.5427930
  H   -4.0935414   -3.4138121   -2.3069184
  C   -3.4629992    1.1778327    0.8981744
  H   -2.9646678    1.3748035   -1.2341246
  H   -1.9100966   -2.9604501    0.0505079
  H   -1.4629051   -2.0827743   -2.9001841
  H   -1.9575130   -3.7337294   -2.3576061
  H   -0.3485473   -3.1536161   -1.9969959
  H   -3.4237125    0.3992117    1.6908336
  H   -4.5101249    1.5278791    0.8136715
  H   -2.8910974    2.0536360    1.2554362









