%chk=109.chk
%nproc=8
%mem=30GB
#P UB3LYP/6-311++G(d,p) nosym opt freq SCRF=(PCM,Solvent=n,n-DiMethylFormamide)

Oxidized

0 1
C                 -1.8343800000     -3.6680070000      1.3154460000
C                 -0.3969950000     -3.9356790000      1.0635920000
C                  0.3918660000     -2.9479400000      0.5967720000
C                 -0.1591390000     -1.5565680000      0.3207750000
C                 -1.5880790000     -1.2933440000      0.5709230000
C                 -2.3603290000     -2.2967220000      1.0385980000
O                 -2.6134670000     -4.5047730000      1.7363710000
O                  0.5776960000     -0.6865950000     -0.0986390000
O                 -3.6682560000     -2.1545510000      1.2969170000
C                 -2.1010260000      0.0865070000      0.2887140000
Br                 0.1843080000     -5.6932080000      1.4390750000
Br                 2.2257970000     -3.1692850000      0.2399470000
H                 -1.5624920000      0.8253420000      0.8882990000
H                 -3.1652340000      0.1561780000      0.5076270000
H                 -1.9319650000      0.3511850000     -0.7584900000
H                 -3.9865580000     -3.0177120000      1.6198250000


