%chk=027-an.chk
%nproc=8
%mem=30GB
#P UB3LYP/6-311++G(d,p) nosym opt freq SCRF=(PCM,Solvent=n,n-DiMethylFormamide)

Reduced

-2 1
C                  0.6552010000     -1.7550260000     -0.9369840000
C                 -0.4772500000     -1.1461290000     -0.2995460000
C                 -0.4129980000      0.0551500000      0.4094680000
C                  0.7908320000      0.8333860000      0.5853030000
C                  1.9017330000      0.1929200000     -0.0783030000
C                  1.8861430000     -0.9917700000     -0.7985690000
O                  0.6191890000     -2.8588280000     -1.5785760000
O                  0.8564080000      1.9217030000      1.2299620000
Br                -2.1394870000     -2.1316350000     -0.4897090000
Br                -1.9786150000      0.8183900000      1.2627010000
Br                 3.5927970000      1.1837200000      0.1187520000
C                  3.0908440000     -1.5891500000     -1.4826490000
C                  3.8260950000     -2.6411260000     -0.6285050000
C                  5.0089280000     -3.2850990000     -1.3618210000
C                  5.7636310000     -4.3366640000     -0.5373110000
C                  6.9462270000     -4.9756350000     -1.2767070000
C                  7.7031680000     -6.0214560000     -0.4506250000
H                  3.7958840000     -0.8025340000     -1.7669630000
H                  2.7308150000     -2.0873270000     -2.3891950000
H                  3.1021340000     -3.4121720000     -0.3451510000
H                  4.1811160000     -2.1689310000      0.2956190000
H                  5.7146440000     -2.5006130000     -1.6709800000
H                  4.6443800000     -3.7498670000     -2.2881770000
H                  5.0626560000     -5.1237400000     -0.2295500000
H                  6.1267970000     -3.8754890000      0.3909710000
H                  7.6435090000     -4.1871190000     -1.5887790000
H                  6.5824990000     -5.4391610000     -2.2028630000
H                  8.1131610000     -5.5819290000      0.4658310000
H                  8.5409720000     -6.4579890000     -1.0068130000
H                  7.0438180000     -6.8443800000     -0.1523540000


