%chk=163-an-new.chk
%nproc=8
%mem=30GB
#P HF/6-311++G(d,p) nosym 

Reduced

-2 1
C                 -1.85054200    1.99564000   -5.13635900
 C                 -1.81878300    0.66299400   -5.52275200
 C                 -1.43954400   -0.32199500   -4.60562000
 C                 -1.50306400    2.35035600   -3.82597000
 C                 -1.12264100    1.36389200   -2.90583300
 C                 -1.09251200    0.02525800   -3.30496600
 C                 -1.54066400    3.76565300   -3.42815200
 C                 -0.74130400    1.69931200   -1.50072200
 C                 -1.17871100    4.13135900   -2.02207000
 C                 -0.79573400    3.13739500   -1.07202700
 C                 -1.21646400    5.46637900   -1.61511000
 C                 -0.89806500    5.85442400   -0.31846600
 C                 -0.53149800    4.89727600    0.60540300
 C                 -0.47776000    3.54897800    0.23796400
 O                 -1.86906000    4.63009700   -4.24567100
 O                 -0.39859100    0.80998600   -0.74706800
 H                 -2.14012000    2.77493400   -5.82937800
 H                 -2.08785700    0.38693700   -6.53548700
 H                 -1.41520900   -1.36224700   -4.90909700
 H                 -0.79531800   -0.72386800   -2.58238600
 Br                 0.04578000    2.38217300    1.65159200
 N                 -1.59662200    6.55926000   -2.52487700
 S                 -0.99701500    7.64646500    0.06173300
 O                 -0.05408300    8.19253500   -0.95773200
 O                 -2.41732900    7.92287100   -0.30626900
 O                 -0.62913700    7.80105900    1.46346300
 H                 -0.28721900    5.20734400    1.61372700
 H                 -1.81913700    6.16397400   -3.45679200
 H                 -0.82443000    7.25831800   -2.51993800
 H                 -2.37363700    7.08884200   -2.07379900

--link1--

%chk=163-an-new.chk
%nproc=8
%mem=30GB
#P UB3LYP/6-311++G(d,p) nosym guess=read geom=check nosym opt freq

Then read in here HF orbitals and run UB3LYP

-2 1










