%chk=288-an.chk
%nproc=8
%mem=30GB
#P UB3LYP/6-311++G(d,p) nosym opt freq SCF=YQC

Reduced

-2 1
 C                 -2.07353100    2.99716000    0.47004100
 C                 -2.81324400    2.31786700    1.41840700
 C                 -2.34745500    1.08086900    1.92694300
 C                 -0.84468300    2.48434000   -0.01557500
 C                 -0.36903400    1.22666800    0.50220400
 C                 -1.14709800    0.56115200    1.46708300
 C                 -0.08556700    3.19738000   -1.00245000
 C                  1.13968100    2.58128900   -1.41745000
 C                  1.62934400    1.36894500   -0.94771100
 C                  0.89533200    0.63030500    0.04908500
 O                 -0.40943000    4.32882800   -1.54160100
 O                  1.31201100   -0.48068500    0.50996800
 H                 -2.41102900    3.94629800    0.06633400
 H                 -3.75340300    2.73271700    1.77553500
 H                 -2.92745400    0.54430600    2.67376400
 H                 -0.76274800   -0.38346600    1.83837800
 C                  2.92569900    0.79673400   -1.46271900
 O                  1.81436500    3.31527400   -2.36355500
 H                  3.10386400    1.14950700   -2.48511100
 H                  2.82812200   -0.29469000   -1.48443500
 H                  1.19730000    4.08016100   -2.46297400
 C                  4.15084700    1.14941100   -0.59500500
 C                  5.45552500    0.53121800   -1.11358500
 C                  6.69273700    0.87851200   -0.27549200
 H                  3.95869700    0.80376000    0.42646900
 H                  4.25501300    2.24054300   -0.55149900
 H                  5.62284200    0.85724500   -2.15007700
 H                  5.34323400   -0.56092600   -1.15306000
 H                  6.53125100    0.54702900    0.75877000
 H                  6.80159600    1.97048600   -0.22946600
 C                  7.99580200    0.26491900   -0.80523900
 C                  9.23717800    0.61397800    0.02567700
 C                 10.53759000   -0.00097400   -0.50807500
 C                 11.77994700    0.35473300    0.31866000
 C                 13.07946200   -0.25977000   -0.21704400
 C                 14.32113000    0.10042400    0.60915600
 C                 15.61730800   -0.51464700    0.07327200
 H                  8.15301200    0.59373800   -1.84148000
 H                  7.88743000   -0.82720200   -0.84884800
 H                  9.08166700    0.28529000    1.06188900
 H                  9.34646600    1.70592200    0.06892800
 H                 10.69087300    0.32377700   -1.54592400
 H                 10.43105800   -1.09327100   -0.54703700
 H                 11.62812300    0.02950500    1.35652300
 H                 11.88675900    1.44706000    0.35706600
 H                 13.23308200    0.06306400   -1.25511100
 H                 12.97678800   -1.35224700   -0.25331200
 H                 14.16863100   -0.22121500    1.64740300
 H                 14.42525300    1.19247500    0.64503100
 H                 15.56672900   -1.60950000    0.06114400
 H                 16.48156800   -0.23690500    0.68634700
 H                 15.82566200   -0.18240200   -0.95026300


