%chk=241.chk
%nproc=8
%mem=30GB
#P UB3LYP/6-311++G(d,p) nosym opt freq SCRF=(PCM,Solvent=n,n-DiMethylFormamide)

Oxidized

0 1
C                 -2.4389410000      1.9138340000     -0.0287560000
C                 -1.3151550000      0.9169990000     -0.0025750000
C                 -1.5428170000     -0.4139330000      0.1389270000
C                 -2.9319870000     -0.9688600000      0.2817350000
C                 -0.4154120000     -1.3917040000      0.1537540000
O                 -0.6315140000     -2.5918090000      0.2743670000
C                  0.9757620000     -0.8801390000      0.0199750000
C                  2.0511930000     -1.7715020000      0.0298500000
C                  3.3533410000     -1.2957990000     -0.0978700000
C                  3.5877670000      0.0737930000     -0.2360480000
C                  2.5200250000      0.9671100000     -0.2463460000
C                  1.2112430000      0.4958220000     -0.1187330000
C                  0.0712980000      1.4528920000     -0.1327920000
O                  0.2665790000      2.6570110000     -0.2490430000
H                 -3.1809130000      1.6465540000     -0.7925470000
H                 -2.9650240000      1.9285320000      0.9361980000
H                 -2.0634710000      2.9162800000     -0.2341000000
H                 -2.9014320000     -2.0429550000      0.4679930000
H                 -3.5156400000     -0.7898090000     -0.6312860000
H                 -3.4646020000     -0.4757190000      1.1048080000
H                  1.8551140000     -2.8305530000      0.1370370000
H                  4.1852120000     -1.9902410000     -0.0885520000
H                  4.6017180000      0.4430480000     -0.3335360000
H                  2.6876540000      2.0311440000     -0.3524630000





