%chk=073-rad-PCM.chk
%nproc=8
%mem=30GB
#P UB3LYP/6-311++G(d,p) SCRF=(PCM,Solvent=n,n-DiMethylFormamide)

Radical PCM in DMF 

-1 2
C                  0.8717700000      1.2266790000     -1.3855040000
C                 -0.5199470000      1.1468940000     -1.8521460000
C                 -1.4257690000      0.4493850000     -1.0824020000
C                 -1.0740420000     -0.2954350000      0.1153470000
C                  0.3105630000     -0.1906910000      0.5981110000
C                  1.1949000000      0.5821350000     -0.1232590000
O                  1.7414610000      1.8379460000     -2.0502980000
O                 -1.9186890000     -0.9945980000      0.7234070000
S                  2.9240770000      0.7951520000      0.4051490000
C                  3.2676920000      2.5789680000      0.3265120000
C                  3.9765080000      3.1034640000     -0.7489890000
C                  2.8782890000      3.3760580000      1.3989310000
C                  3.1937920000      4.7342900000      1.3853600000
C                  4.3020990000      4.4575230000     -0.7456600000
C                  3.9076430000      5.2732330000      0.3158180000
O                  3.8358810000      0.1170770000     -0.5272320000
O                  3.0171250000      0.4644980000      1.8408190000
H                  4.2455980000      2.4538380000     -1.5698630000
H                  2.3504480000      2.9336450000      2.2344780000
H                  4.8542710000      4.8784300000     -1.5788520000
H                  2.8906860000      5.3657420000      2.2134810000
H                  4.1556600000      6.3295350000      0.3082090000
S                 -3.1770080000      0.3148690000     -1.5613980000
C                 -4.1467510000      0.7116470000     -0.0754440000
C                 -4.3667900000      2.0506490000      0.2338080000
C                 -4.7167130000     -0.3107820000      0.6755200000
C                 -5.5262950000      0.0197580000      1.7593650000
C                 -5.1648080000      2.3718600000      1.3313170000
C                 -5.7462910000      1.3574710000      2.0908210000
H                 -3.9309380000      2.8247200000     -0.3853380000
H                 -4.5072620000     -1.3378640000      0.4118350000
H                 -5.9761400000     -0.7686210000      2.3529670000
H                 -5.3386590000      3.4120630000      1.5845620000
H                 -6.3700100000      1.6088280000      2.9423700000
O                 -3.4993880000     -1.0635690000     -1.9571540000
O                 -3.4868990000      1.4056730000     -2.5065430000
C                 -0.7970820000      1.8388260000     -3.1616910000
C                  0.6143660000     -0.9766050000      1.8473750000
H                  0.1566940000      2.1304160000     -3.5986920000
H                 -1.4118010000      2.7304740000     -3.0162720000
H                 -1.3465930000      1.1976080000     -3.8511600000
H                 -0.2406990000     -1.6160330000      2.0610620000
H                  0.7886400000     -0.3147490000      2.6991850000
H                  1.5165410000     -1.5789450000      1.7386010000





