%chk=014-rad.chk
%nproc=8
%mem=30GB
#P UB3LYP/6-311++G(d,p) nosym  opt freq

Radical

-1 2
C    -1.6598230229   -1.4711559421   -0.6348162278
C    -1.1468596666   -0.1399407621   -0.1538917263
C    -1.4896395116   -0.0642928214    1.3347063879
C    -1.8956936562    0.9227751596   -0.9265701561
C     0.2874481495    0.0452746493   -0.2927277203
C     0.7325695060    1.0395984113   -1.0381259396
C     2.1839217770    1.2668403871   -1.2084543360
O     2.6040284353    2.2149399864   -1.9192062835
C     3.1612689874    0.4151461207   -0.5699455862
C     2.7314498377   -0.5774557023    0.1741645794
Cl    3.9043583683   -1.6097462489    0.9480705422
C     1.2962353468   -0.7980627244    0.3395068237
O     0.8924327552   -1.7479651995    1.0515525558
Cl    4.8790512806    0.7343749635   -0.8092367273
H    -1.5225064202   -2.2819660105    0.1169630778
H    -2.7649159950   -1.3567288609   -0.7382811123
H    -1.2863271210   -1.7403847212   -1.6369029741
H    -0.5697443281   -0.1581818064    1.9418256200
H    -2.1822514031   -0.8543111052    1.6456709869
H    -1.9312053073    0.9459505187    1.5770810951
H    -3.0082351832    0.7344506349   -0.8698701857
H    -1.6461147750    0.7901068370   -1.9949047058
H    -1.6705005768    1.9491730501   -0.5838239522
H     0.1010525233    1.7415611862   -1.5643756140


