%chk=227.chk
%nproc=8
%mem=30GB
#P UB3LYP/6-311++G(d,p) nosym opt freq

Oxidized

0 1
C          5.66996       -5.10425        1.28516
C          6.68908       -5.01181        0.33245
C          6.60477       -4.07069       -0.70075
C          4.56016       -4.25369        1.20776
C          4.47362       -3.31523        0.17902
C          5.49530       -3.22146       -0.77740
C          3.48868       -4.35773        2.21841
C          2.33814       -3.44135        2.09825
C          2.25467       -2.54324        1.11391
C          3.30802       -2.41424        0.08851
O          3.54060       -5.17191        3.13019
O          3.20772       -1.58320       -0.80369
C          7.65266       -3.97873       -1.67578
N          8.50366       -3.90933       -2.46113
H          5.74467       -5.83974        2.08553
H          7.54760       -5.67915        0.40357
H          5.42229       -2.48599       -1.57909
H          1.56570       -3.53817        2.85288
H          1.41043       -1.86898        1.02349









