%chk=294-an.chk
%nproc=8
%mem=30GB
#P UB3LYP/6-311++G(d,p) nosym opt freq SCRF=(PCM,Solvent=n,n-DiMethylFormamide)

Reduced

-2 1
C                 -6.5604080000      0.8197080000     -1.8598360000
C                 -6.6916990000      1.0514770000     -3.2151890000
C                 -5.6939800000      0.5966020000     -4.1114860000
C                 -5.4401160000      0.1296350000     -1.3325630000
C                 -4.4234090000     -0.3318430000     -2.2436030000
C                 -4.5886690000     -0.0793030000     -3.6177260000
C                 -5.3165040000     -0.1081010000      0.0771100000
C                 -4.1432390000     -0.8147540000      0.4925000000
C                 -3.1436390000     -1.2808570000     -0.3539440000
C                 -3.2335380000     -1.0547970000     -1.7743730000
O                 -6.1637640000      0.2524680000      0.9882580000
O                 -2.3380730000     -1.4645580000     -2.5815630000
O                 -4.0892900000     -1.0125090000      1.8519810000
C                 -1.9600600000     -2.0445130000      0.1783810000
H                 -7.3122760000      1.1595120000     -1.1548620000
H                 -7.5608420000      1.5844920000     -3.5948450000
H                 -5.7944480000      0.7784790000     -5.1786840000
H                 -3.8060260000     -0.4383680000     -4.2783710000
H                 -4.9323450000     -0.5748490000      2.1237700000
C                 -0.7104830000     -1.1754450000      0.4306610000
C                  0.4877020000     -2.0219570000      0.9098550000
C                  1.7471820000     -1.2392510000      1.2002020000
C                  2.6472340000     -0.8987110000      0.1807720000
C                  2.0637000000     -0.8169150000      2.4957040000
C                  3.2266240000     -0.0935960000      2.7612490000
C                  4.1280370000      0.2398150000      1.7452580000
C                  3.8095360000     -0.1784690000      0.4457630000
C                  5.4023450000      1.0066860000      2.0577440000
C                  6.6783120000      0.1782500000      1.7814370000
C                  5.4823190000      2.3667200000      1.3292160000
C                  6.7599050000      3.1380830000      1.6918290000
C                  7.9567680000      0.9490540000      2.1393330000
C                  8.0225950000      2.3080980000      1.4338720000
H                 -1.6927650000     -2.8095960000     -0.5601980000
H                 -2.2342790000     -2.5458210000      1.1139360000
H                 -0.9403740000     -0.4091620000      1.1791010000
H                 -0.4493700000     -0.6572330000     -0.4968230000
H                  0.7017350000     -2.7781630000      0.1448850000
H                  0.1917410000     -2.5692530000      1.8133110000
H                  2.4295040000     -1.2052400000     -0.8380610000
H                  1.3877130000     -1.0596210000      3.3106740000
H                  3.4410800000      0.2146750000      3.7812880000
H                  4.4791990000      0.0571930000     -0.3758190000
H                  5.3891650000      1.2219670000      3.1349700000
H                  6.7040310000     -0.0996770000      0.7203290000
H                  6.6316810000     -0.7612460000      2.3449340000
H                  4.5948540000      2.9624800000      1.5712560000
H                  5.4541150000      2.1980300000      0.2455970000
H                  6.7238930000      3.4186410000      2.7533250000
H                  6.8050590000      4.0793680000      1.1297410000
H                  8.8438100000      0.3507660000      1.8931690000
H                  7.9912660000      1.1062110000      3.2260540000
H                  8.1319120000      2.1467130000      0.3527340000
H                  8.9167380000      2.8597810000      1.7518430000


