%chk=311.chk
%nproc=8
%mem=30GB
#P UB3LYP/6-311++G(d,p) nosym opt freq SCRF=(PCM,Solvent=n,n-DiMethylFormamide)

Oxidized

0 1
C                 -4.8495050000     -0.3363170000     -3.9313510000
C                 -4.2356070000     -1.3701810000     -4.6370780000
C                 -3.0913440000     -1.9897820000     -4.1205850000
C                 -4.3139600000      0.0724450000     -2.7103720000
C                 -3.1684220000     -0.5408290000     -2.1832940000
C                 -2.5665920000     -1.5747720000     -2.9049810000
C                 -4.9585990000      1.1659850000     -1.9563230000
C                 -4.3610040000      1.5688340000     -0.6536650000
C                 -3.2489980000      0.9967030000     -0.1314630000
C                 -2.5915420000     -0.1040030000     -0.8751720000
O                 -5.9590570000      1.7619910000     -2.3405370000
O                 -1.5894730000     -0.6464960000     -0.4284450000
O                 -5.0196890000      2.5641840000     -0.0338570000
O                 -4.7015070000     -1.8221520000     -5.8337340000
C                 -2.6725900000      1.4140880000      1.1915470000
C                 -3.2077090000      0.5707920000      2.3692260000
C                 -2.6113250000      0.9966750000      3.7146690000
C                 -3.1305930000      0.1711360000      4.8972220000
C                 -2.5394130000      0.5948190000      6.2466660000
C                 -3.0542930000     -0.2330130000      7.4295850000
C                 -2.4635150000      0.1897850000      8.7794070000
C                 -2.9765590000     -0.6395210000      9.9621590000
C                 -2.3863870000     -0.2169540000     11.3121050000
C                 -2.8981090000     -1.0462920000     12.4954450000
C                 -2.3033270000     -0.6162400000     13.8396330000
H                 -5.7368350000      0.1600890000     -4.3102330000
H                 -2.6316720000     -2.7908960000     -4.6865530000
H                 -1.6818910000     -2.0455490000     -2.4945250000
H                 -5.7623010000      2.8039970000     -0.6190540000
H                 -5.4867460000     -1.3280210000     -6.0938990000
H                 -2.9048660000      2.4675510000      1.3673740000
H                 -1.5861140000      1.3064860000      1.1452100000
H                 -2.9793920000     -0.4841180000      2.1842440000
H                 -4.2994250000      0.6588050000      2.4070870000
H                 -2.8311740000      2.0578850000      3.8890250000
H                 -1.5181040000      0.9142150000      3.6670310000
H                 -2.9088840000     -0.8894390000      4.7221330000
H                 -4.2246020000      0.2499420000      4.9409930000
H                 -2.7629440000      1.6551020000      6.4225560000
H                 -1.4452660000      0.5190150000      6.2014790000
H                 -2.8303930000     -1.2931230000      7.2532070000
H                 -4.1486100000     -0.1579030000      7.4744590000
H                 -2.6884200000      1.2496140000      8.9564500000
H                 -1.3691810000      0.1159360000      8.7339570000
H                 -2.7511960000     -1.6992780000      9.7851560000
H                 -4.0709980000     -0.5661290000     10.0074210000
H                 -2.6120410000      0.8426590000     11.4905130000
H                 -1.2917490000     -0.2898160000     11.2677960000
H                 -2.6717680000     -2.1048510000     12.3182210000
H                 -3.9916810000     -0.9735820000     12.5403370000
H                 -1.2127590000     -0.7111660000     13.8381210000
H                 -2.6881310000     -1.2266660000     14.6614500000
H                 -2.5426970000      0.4285770000     14.0619490000


