%chk=134.chk
%nproc=8
%mem=30GB
#P UB3LYP/6-311++G(d,p) nosym opt freq

Oxidized

0 1
C                  7.1231440000     -1.8266390000     -0.5874600000
C                  7.6392490000     -0.7935800000     -1.4433100000
C                  6.7963700000      0.2872280000     -1.8564680000
C                  5.4918780000      0.3077540000     -1.4290760000
C                  4.9597710000     -0.6961410000     -0.5938700000
C                  5.7488070000     -1.7621200000     -0.1549080000
C                  5.1396470000     -2.7810050000      0.7557220000
C                  3.6810090000     -2.6628270000      1.0834500000
C                  2.9023610000     -1.5948190000      0.6204670000
C                  3.5171900000     -0.5438620000     -0.2260700000
C                  3.0916350000     -3.6465660000      1.8841410000
C                  1.7429490000     -3.5652420000      2.2116330000
C                  0.9688810000     -2.4976050000      1.7482290000
C                  1.5475220000     -1.5135120000      0.9561980000
O                  5.7718200000     -3.7043660000      1.2494320000
O                  2.8672240000      0.4135150000     -0.6173940000
H                  4.8259950000      1.1081660000     -1.7266380000
H                  3.7078470000     -4.4633210000      2.2378100000
H                  0.9720330000     -0.6740400000      0.5861490000
C                  7.3109450000      1.3896030000     -2.7465950000
H                 -0.0821120000     -2.4366160000      2.0070470000
C                  8.9901220000     -0.8573800000     -1.8741920000
C                  8.0175980000     -2.8739260000     -0.2237150000
C                  9.3170820000     -2.8950600000     -0.6676880000
C                  9.8356770000     -1.8800630000     -1.5060230000
C                 11.2680670000     -1.9359540000     -1.9701460000
H                  1.2913810000     -4.3329410000      2.8298940000
H                  8.1516600000      1.9181590000     -2.2866020000
H                  6.5242440000      2.1181480000     -2.9451990000
H                  7.6599300000      1.0000400000     -3.7080760000
H                  9.3688290000     -0.0732290000     -2.5179220000
H                  7.6596910000     -3.6619230000      0.4172090000
H                  9.9628330000     -3.7141130000     -0.3661260000
H                 11.5149040000     -1.0886560000     -2.6125400000
H                 11.4630470000     -2.8551440000     -2.5316740000
H                 11.9564410000     -1.9275030000     -1.1190310000


