%chk=173-rad.chk
%nproc=8
%mem=30GB
#P UB3LYP/6-311++G(d,p) nosym  opt freq SCRF=(PCM,Solvent=n,n-DiMethylFormamide)

Radical

-1 2
C                 -1.4480260000      2.3154420000     -3.9428910000
C                 -1.4099550000      0.9415690000     -4.0714330000
C                 -1.1111480000      0.1377780000     -2.9492710000
C                 -1.1924990000      2.9386110000     -2.7008550000
C                 -0.8917540000      2.1331000000     -1.5765060000
C                 -0.8580630000      0.7287220000     -1.7276970000
C                 -1.2519150000      4.3926870000     -2.6012240000
C                 -0.6087380000      2.7220360000     -0.2723350000
C                 -0.9903110000      4.9963790000     -1.3016690000
C                 -0.6457200000      4.1737830000     -0.1594490000
C                 -1.0662930000      6.4277310000     -1.1489490000
C                 -0.7730190000      6.9834960000      0.0973100000
C                 -0.4252690000      6.1920800000      1.1938310000
C                 -0.3443470000      4.8016420000      1.1026930000
O                 -1.5262350000      5.0670920000     -3.6470350000
O                 -0.3449750000      1.9475480000      0.7046230000
H                 -1.6759380000      2.9576910000     -4.7850330000
H                 -1.6096280000      0.4782740000     -5.0333000000
H                 -1.0804630000     -0.9433700000     -3.0486560000
H                 -0.6243970000      0.1385380000     -0.8497920000
H                 -0.2037460000      6.6848960000      2.1325940000
H                 -0.8240400000      8.0566780000      0.2347450000
N                 -1.4672420000      7.2204670000     -2.2133760000
N                  0.0596050000      4.0326280000      2.1830070000
H                 -1.5427470000      6.6785210000     -3.0812260000
H                 -0.0331590000      3.0293480000      1.9896720000
C                  0.0537770000      4.4846460000      3.5586630000
C                  0.8412800000      3.4784860000      4.4055890000
C                 -1.3667030000      4.6895430000      4.1246110000
C                 -1.2487920000      8.6495850000     -2.2979230000
C                  0.2380790000      9.0282440000     -2.4583510000
C                 -2.0835310000      9.2022250000     -3.4587710000
H                  0.5825390000      5.4459700000      3.6174830000
H                  0.8706560000      3.7895100000      5.4544510000
H                  1.8658380000      3.3839180000      4.0376620000
H                  0.3735590000      2.4894470000      4.3581850000
H                 -1.9415320000      5.3675670000      3.4900280000
H                 -1.3334850000      5.1086210000      5.1374290000
H                 -1.8973800000      3.7328820000      4.1630330000
H                 -1.6192600000      9.1193330000     -1.3763950000
H                  0.8370850000      8.5900500000     -1.6570740000
H                  0.3748730000     10.1160690000     -2.4370470000
H                  0.6214270000      8.6497300000     -3.4112790000
H                 -1.7759930000      8.7427470000     -4.4040230000
H                 -1.9553830000     10.2851880000     -3.5509300000
H                 -3.1437900000      8.9847420000     -3.3084600000


