%chk=038-an.chk
%nproc=8
%mem=30GB
#P UB3LYP/6-311++G(d,p) nosym opt freq

Reduced

-2 1
C                  2.9034290000      0.2610100000     -0.0780570000
C                  1.4012410000      0.1290260000     -0.0424800000
C                  0.7905880000     -0.9633020000      0.5817420000
C                 -0.6241030000     -1.1655310000      0.6693620000
O                 -1.1719170000     -2.1964330000      1.2468710000
C                 -1.4017680000     -0.1302070000      0.0409810000
C                 -0.7924070000      0.9624220000     -0.5857500000
C                  0.6216550000      1.1657400000     -0.6715460000
O                  1.1651380000      2.1927580000     -1.2570840000
C                 -2.9030110000     -0.2612860000      0.0834330000
H                  3.3945490000     -0.5443300000      0.4833500000
H                  3.2328020000      1.2236160000      0.3476710000
H                  3.2890480000      0.2558450000     -1.1057630000
H                  1.4168310000     -1.7405950000      1.0237670000
H                 -1.4179200000      1.7379030000     -1.0342770000
H                 -3.2584130000     -0.4259000000      1.1102420000
H                 -3.3896110000      0.6350170000     -0.3242140000
H                 -3.2561300000     -1.1357520000     -0.4882520000


