%chk=137-rad.chk
%nproc=8
%mem=30GB
#P UB3LYP/6-311++G(d,p) nosym opt freq

Radical

-1 2
C     3.5442182175    2.3836517619   -0.4527602990
O     2.3015993900    1.7687036283   -0.3569924396
C     2.0808706805    0.4075587480   -0.2405950362
C     3.0734199258   -0.5460388698   -0.2023663251
C     2.7681357292   -1.8942991809   -0.0837936484
C     1.4391634489   -2.3116000687   -0.0004747967
C     0.4409976811   -1.3654600694   -0.0379004912
C    -0.9377720119   -1.8348246692    0.0514142064
O    -1.2486255240   -3.0367851046    0.1585807895
C    -2.0415080987   -0.8621865321    0.0158556820
C    -3.3461286482   -1.2702543919    0.0974933458
C    -4.3250956214   -0.3088475009    0.0581086061
C    -4.0220011162    1.0451751296   -0.0608354598
C    -2.7060382392    1.4416616770   -0.1419836317
C    -1.7269028339    0.4742810912   -0.1021332528
C    -0.3432007082    0.9245078774   -0.1901148993
O    -0.0491159250    2.1374964405   -0.2975242551
C     0.7768946879   -0.0314358394   -0.1564994982
H     4.3646788047    1.7148496184   -0.7942340407
H     3.8081266194    2.7626469669    0.5780190258
H     3.5504144206    3.2665631611   -1.1406692997
H     4.0924977873   -0.2365186155   -0.2654259120
H     3.5090636008   -2.6677668871   -0.0503629458
H     1.1832213228   -3.3736050142    0.0935108084
H    -3.5929282146   -2.3183883669    0.1900249697
H    -5.3578953545   -0.5751375001    0.1182256778
H    -4.7735863260    1.8004799076   -0.0924375536
H    -2.4625036947    2.5055726029   -0.2356479425


