%chk=062-an.chk
%nproc=8
%mem=30GB
#P UB3LYP/6-311++G(d,p) nosym opt freq SCF=YQC

Reduced

-2 1
C         -1.66338       -2.27829        1.22465
C         -2.25326       -2.14526       -0.16996
C         -1.69033       -1.18098       -0.96005
C         -0.57819       -0.31688       -0.49765
C         -0.03504       -0.47583        0.85736
C         -0.54710       -1.40193        1.67119
O         -2.07867       -3.10018        2.02231
O         -0.10902        0.53159       -1.24320
C         -3.41026       -3.01923       -0.69959
C         -4.03349       -4.03741        0.07909
C         -3.92599       -2.85100       -2.01982
C         -4.97578       -3.63620       -2.51548
C         -5.08573       -4.81781       -0.43060
C         -5.55560       -4.61796       -1.72400
H         -2.01555       -0.98478       -1.96774
H          0.78082        0.15757        1.19755
H         -0.13215       -1.50569        2.67202
H         -3.74527       -4.26944        1.08519
H         -3.54482       -2.11962       -2.70729
H         -5.34516       -3.48296       -3.52476
H         -5.54809       -5.58827        0.17644
H         -6.36886       -5.22318       -2.11394



