%chk=243.chk
%nproc=8
%mem=30GB
#P UB3LYP/6-311++G(d,p) nosym opt freq SCRF=(PCM,Solvent=n,n-DiMethylFormamide)

Oxidized

0 1
C                  3.7410120000     -1.0412110000     -0.3257780000
C                  2.4551920000     -0.2913390000     -0.0832080000
C                  2.4688250000      1.0971430000      0.1264620000
C                  1.2945250000      1.8022480000      0.3524160000
C                  0.0683760000      1.1331300000      0.3746250000
C                 -1.1936880000      1.8839550000      0.6164870000
O                 -1.2068330000      3.0920880000      0.8018900000
C                 -2.4534850000      1.1102010000      0.6258870000
C                 -2.5149320000     -0.2198920000      0.4295840000
C                 -3.7944550000     -0.9993400000      0.4401490000
C                 -1.2567400000     -0.9969230000      0.1840940000
O                 -1.3070420000     -2.2031990000      0.0053190000
C                  0.0372150000     -0.2539650000      0.1666850000
C                  1.2263940000     -0.9515660000     -0.0596230000
H                  4.2622340000     -0.6523170000     -1.2057420000
H                  4.4214410000     -0.9381180000      0.5250540000
H                  3.5581580000     -2.1050330000     -0.4842400000
H                  3.4155400000      1.6279460000      0.1112870000
H                  1.3049920000      2.8733620000      0.5141460000
H                 -3.3486020000      1.6974880000      0.8057370000
H                 -3.7629650000     -1.7782180000      1.2070130000
H                 -4.6491050000     -0.3479460000      0.6258670000
H                 -3.9369040000     -1.5160110000     -0.5129960000
H                  1.1708450000     -2.0224830000     -0.2171800000


