%chk=119-rad.chk
%nproc=8
%mem=30GB
#P UB3LYP/genecp nosym  opt freq SCRF=(PCM,Solvent=n,n-DiMethylFormamide)

Radical

-1 2
C                  6.8973820000     -1.6411380000     -0.2542620000
C                  7.4565760000     -0.6827710000     -1.0754740000
C                  6.6420210000      0.3225810000     -1.6407480000
C                  5.2883920000      0.3442170000     -1.3704980000
C                  4.6933610000     -0.6251160000     -0.5336990000
C                  5.5153660000     -1.6396560000      0.0367640000
C                  4.9713140000     -2.6794310000      0.9144020000
C                  3.5317240000     -2.6110390000      1.1685930000
C                  2.7084270000     -1.5961630000      0.5981940000
C                  3.2518670000     -0.5587380000     -0.2776470000
C                  2.9443270000     -3.5862760000      2.0081190000
C                  1.5945310000     -3.5473360000      2.2649750000
C                  0.7600010000     -2.5522900000      1.7115540000
C                  1.3280010000     -1.5982890000      0.8916290000
O                  5.6941400000     -3.5736440000      1.4175140000
O                  2.5263380000      0.3345370000     -0.7794970000
H                  7.4984060000     -2.4243750000      0.1931900000
H                  4.6389450000      1.1037910000     -1.7903060000
H                  3.5965230000     -4.3428830000      2.4251170000
H                  0.7217540000     -0.8171690000      0.4468730000
I                  0.7174170000     -5.0197540000      3.5304570000
H                  8.5215160000     -0.7009850000     -1.2872490000
H                  7.0809370000      1.0770020000     -2.2868600000
H                 -0.3012680000     -2.5390850000      1.9263180000

H C O 0
6-311++G(d,p)
****
I 0
def2TZVP
****

I 0
def2TZVP









