%chk=236-an.chk
%nproc=8
%mem=30GB
#P UB3LYP/6-311++G(d,p) nosym opt freq

Reduced

-2 1
C                 -3.2137330000      0.0640080000      1.0005970000
C                 -1.8568480000      0.0040760000      0.3460530000
C                 -1.7467360000     -0.2236870000     -1.0400780000
C                 -0.5250190000     -0.3070090000     -1.7600050000
O                 -0.4513620000     -0.5131390000     -3.0326450000
C                  0.6621400000     -0.1326860000     -0.9228980000
C                  1.9484810000     -0.1736370000     -1.5077400000
C                  3.1044340000     -0.0185530000     -0.7620740000
C                  3.0090760000      0.1888410000      0.6376010000
C                  1.7636700000      0.2414180000      1.2378950000
C                  0.5630590000      0.0978010000      0.5010130000
C                 -0.7198370000      0.1766040000      1.1888520000
O                 -0.8177290000      0.3828750000      2.4632210000
H                 -4.0090000000     -0.1866230000      0.2869130000
H                 -3.2696220000     -0.6242110000      1.8557050000
H                 -3.4232310000      1.0614850000      1.4169310000
H                 -2.6588070000     -0.3490680000     -1.6266080000
H                  1.9857630000     -0.3344720000     -2.5813870000
H                  4.0821270000     -0.0593690000     -1.2413700000
H                  3.9146120000      0.3043620000      1.2329850000
H                  1.6585610000      0.4009830000      2.3070400000


