%chk=325.chk
%nproc=8
%mem=30GB
#P UB3LYP/6-311++G(d,p) nosym opt freq

Oxidized

0 1
C         -1.82620        2.83364       -0.75886
C         -2.92432        2.00054       -0.53577
C         -2.72985        0.66738       -0.17271
C         -0.51869        2.33595       -0.61950
C         -0.31810        0.98394       -0.25122
C         -1.43623        0.15954       -0.03058
C          0.65676        3.20667       -0.85268
C          2.00550        2.63226       -0.69243
C          2.14537        1.21424       -0.30625
C          1.06316        0.43549       -0.09773
O          0.52026        4.37890       -1.17187
O          2.99972        3.31754       -0.87589
H         -1.99879        3.86507       -1.03985
H         -3.92855        2.38944       -0.64463
H         -3.58399        0.02512       -0.00076
H         -1.31233       -0.87820        0.25197
H          3.14297        0.79944       -0.19033
O          1.22663       -0.86161        0.25571
H          2.09863       -1.26698        0.36882





