%chk=240.chk
%nproc=8
%mem=30GB
#P UB3LYP/6-311++G(d,p) nosym opt freq

Oxidized

0 1
O     2.6688062299   -2.6441088469   -1.3588686839
C     2.1111287491   -1.6663795078   -0.7981838699
C     0.6723485459   -1.4919681120   -0.7096200954
C     0.0905934017   -0.4583060324   -0.1167950022
C    -1.3758170736   -0.3797145691   -0.0838829861
C    -1.9174593619    0.8476524492   -0.7946783500
C    -3.4066405831    0.5768619607   -1.0098240163
C    -4.0918804193    0.4595282583    0.3255778269
C    -3.4357483431   -0.5934245570    1.1807899507
C    -1.9396926944   -0.3499442014    1.3185196709
C     0.9606177708    0.5401705977    0.4680917890
O     0.4342971998    1.5269255894    1.0342567846
C     2.4205772697    0.4393074888    0.4222447915
C     3.2275275900    1.4173214647    0.9947714914
C     4.5973798711    1.2737636389    0.9234719594
C     5.1487944078    0.1771002281    0.2939535797
C     4.3682407932   -0.7910081608   -0.2726189698
C     2.9939929447   -0.6510529002   -0.2034376577
H     0.0710018201   -2.2887604692   -1.1755625762
H    -1.8246515317   -1.2580578429   -0.5894305883
H    -1.8690596598    1.7236042339   -0.0932473665
H    -1.4031451149    1.0735855446   -1.7270559255
H    -3.8912113232    1.3462071622   -1.6136827454
H    -3.4802952113   -0.4298213723   -1.5072734757
H    -4.0939917941    1.4595753445    0.7999861639
H    -5.1409120099    0.1395806691    0.1665418715
H    -3.6105973199   -1.5728238606    0.6607686111
H    -3.9455010815   -0.6277103308    2.1535737801
H    -1.5477771635   -1.1378689722    1.9681275164
H    -1.8064164882    0.6734911503    1.7322845010
H     2.7582727079    2.2708619742    1.4843986979
H     5.2649676553    2.0074384386    1.3534844998
H     6.2259352779    0.0547386383    0.2324121852
H     4.7663149384   -1.6667650961   -0.7756869143


