%chk=221-rad.chk
%nproc=8
%mem=30GB
#P UB3LYP/6-311++G(d,p) nosym opt freq

Radical

-1 2
C          4.99519       -2.49491        0.20065
C          5.68934       -1.65600       -0.67285
C          4.98916       -0.81156       -1.53399
C          3.59443       -2.48964        0.21280
C          2.89480       -1.64548       -0.64788
C          3.59332       -0.80417       -1.52339
C          2.86853       -3.38149        1.13914
C          1.39162       -3.37361        1.13960
C          0.69333       -2.52888        0.27882
C          1.41863       -1.63232       -0.64389
C          0.69333       -4.22248        2.01074
C         -0.70707       -2.52854        0.28544
C         -1.40544       -3.37452        1.15254
O          3.48309       -4.12059        1.89839
O          0.79995       -0.88884       -1.39611
H          5.54925       -3.15138        0.86979
H         -2.49346       -3.35621        1.13829
H          3.05404       -0.14206       -2.19883
H          1.24358       -4.88219        2.68248
H         -1.26028       -1.87102       -0.38422
C         -0.70890       -4.22738        2.02040
H          5.53038       -0.15798       -2.21479
C         -1.40389       -5.14883        2.96140
O         -0.81762       -5.89117        3.73189
O         -2.74901       -5.03984        2.83067
C         -3.48704       -5.89966        3.70098
H         -4.55209       -5.73601        3.51495
H         -3.27674       -5.65774        4.74751
H         -3.25570       -6.94853        3.49033
H          6.77723       -1.66191       -0.68110










