%chk=002-an.chk
%nproc=8
%mem=30GB
#P UB3LYP/6-311++G(d,p) nosym opt freq SCRF=(PCM,Solvent=n,n-DiMethylFormamide)

Reduced

-2 1
C                  0.0778990000      1.7571840000      0.0001870000
C                 -1.1243860000      0.9211170000     -0.0007070000
C                 -1.1124890000     -0.4549000000      0.0002200000
C                  0.1040730000     -1.2700490000      0.0018790000
C                  1.2955990000     -0.4703430000      0.0028020000
C                  1.2830750000      0.9782040000      0.0018770000
O                  0.0231990000      3.0199240000     -0.0014230000
O                  0.0712140000     -2.5335450000      0.0034730000
C                  2.5006280000      1.6997060000      0.0027580000
C                  2.5254350000     -1.1706940000      0.0045870000
N                  3.5048830000      2.2902190000      0.0034350000
N                  3.5397370000     -1.7437790000      0.0061210000
Cl                -2.6572820000      1.8154680000     -0.0029500000
Cl                -2.6296940000     -1.3756220000     -0.0007700000


