%chk=146-an.chk
%nproc=8
%mem=30GB
#P UB3LYP/6-311++G(d,p) nosym opt freq

Reduced

-2 1
C                  2.1358210000      3.0140120000      1.2358310000
C                  2.0595320000      1.5441680000      1.5793470000
O                  1.7017210000      1.1086640000      2.6493100000
O                  2.7683250000      0.8136430000      0.6590790000
C                  2.4599180000     -0.5472230000      0.5136440000
C                  3.5054600000     -1.4177260000      0.7002200000
C                  3.3161700000     -2.8072550000      0.4758340000
C                  2.0806500000     -3.2573560000      0.0745000000
C                  0.9872880000     -2.3785720000     -0.1331220000
C                 -0.2592520000     -2.9490290000     -0.5913260000
O                 -0.4127400000     -4.2089340000     -0.7784080000
C                 -1.3110660000     -1.9916380000     -0.8507490000
C                 -2.5367230000     -2.4871520000     -1.3611880000
C                 -3.5901330000     -1.6628170000     -1.6790170000
C                 -3.4460350000     -0.2625560000     -1.4895740000
C                 -2.2729410000      0.2405160000     -0.9866790000
O                 -2.1880170000      1.6496690000     -0.9451270000
C                 -2.1979650000      2.2825230000      0.2512160000
C                 -1.6256920000      3.6707800000      0.0935870000
O                 -2.6922090000      1.8462130000      1.2622590000
C                 -1.1405830000     -0.5593810000     -0.6312250000
C                  0.0880140000     -0.0048920000     -0.1223860000
O                  0.2332980000      1.2694830000      0.1280550000
C                  1.1543340000     -0.9509500000      0.0896820000
H                  1.9300790000      3.1562560000      0.1768400000
H                  1.4105580000      3.5563370000      1.8414520000
H                  3.1443380000      3.3820180000      1.4667390000
H                  4.4627450000     -1.0161740000      1.0176430000
H                  4.1421890000     -3.4986920000      0.6265440000
H                  1.8860770000     -4.3084050000     -0.1105920000
H                 -2.5909610000     -3.5624010000     -1.4952190000
H                 -4.5207350000     -2.0659470000     -2.0714310000
H                 -4.2436100000      0.4307540000     -1.7376380000
H                 -1.7531480000      4.2311210000      1.0200340000
H                 -0.5679660000      3.5501550000     -0.1427630000
H                 -2.1167410000      4.1907860000     -0.7353730000


