%chk=064-an-PCM.chk
%nproc=8
%mem=30GB
#P UB3LYP/6-311++G(d,p) SCRF=(PCM,Solvent=n,n-DiMethylFormamide)

Reduced 

-2 1
O                  1.4522290000      2.2760530000     -0.8075100000
C                  0.8083220000      1.1971700000     -0.5047100000
C                 -0.6145630000      1.1723140000     -0.4973490000
C                 -1.4388140000      0.0708140000     -0.1940640000
C                 -0.8082850000     -1.1971970000      0.1835890000
O                 -1.4521660000     -2.2760890000      0.4864280000
C                  0.6145890000     -1.1723280000      0.1762560000
C                  1.4388270000     -0.0708500000     -0.1270920000
C                  2.9013900000     -0.2100880000     -0.0424510000
C                  3.5205640000     -1.3196280000      0.5961380000
C                  4.9016390000     -1.4691050000      0.6571350000
C                  5.7551190000     -0.5152830000      0.0908540000
C                  5.1721830000      0.5958230000     -0.5297550000
C                  3.7908330000      0.7527070000     -0.5945970000
C                 -2.9013890000      0.2100940000     -0.2785550000
C                 -3.5206200000      1.3196320000     -0.9170990000
C                 -4.9017000000      1.4691180000     -0.9779730000
C                 -5.7551410000      0.5153120000     -0.4116110000
C                 -5.1721590000     -0.5958120000      0.2089180000
C                 -3.7908060000     -0.7527090000      0.2736440000
H                 -1.0597190000      2.1327260000     -0.7383980000
H                  1.0597750000     -2.1327070000      0.4173880000
H                  2.9000930000     -2.0714240000      1.0675450000
H                  5.3187950000     -2.3383760000      1.1625800000
H                  6.8350270000     -0.6298440000      0.1421180000
H                  5.8091850000      1.3596620000     -0.9730210000
H                  3.3344960000      1.6252500000     -1.0468900000
H                 -2.9002070000      2.0714180000     -1.3885940000
H                 -5.3188910000      2.3383930000     -1.4833830000
H                 -6.8350530000      0.6298800000     -0.4627880000
H                 -5.8091270000     -1.3596570000      0.6522240000
H                 -3.3344280000     -1.6252700000      0.7258680000





