%chk=132-rad.chk
%nproc=8
%mem=30GB
#P UB3LYP/6-311++G(d,p) nosym  opt freq

Radical

-1 2
C                  6.8797410000     -1.6361920000     -0.2537330000
C                  7.4617000000     -0.6849790000     -1.0750890000
C                  6.6354240000      0.3287440000     -1.6443580000
C                  5.2816520000      0.3256020000     -1.3559930000
C                  4.6785540000     -0.6366130000     -0.5219470000
C                  5.5026810000     -1.6487780000      0.0465940000
C                  4.9646880000     -2.6889630000      0.9237090000
C                  3.5255670000     -2.6230450000      1.1792700000
C                  2.7009620000     -1.6111470000      0.6109490000
C                  3.2390010000     -0.5703940000     -0.2662410000
C                  2.9224870000     -3.5862120000      2.0131660000
C                  1.5679770000     -3.5892690000      2.3013570000
C                  0.7424650000     -2.5749920000      1.7318020000
C                  1.3245360000     -1.6242310000      0.9112880000
O                  5.6931980000     -3.5834470000      1.4259600000
O                  2.5106020000      0.3237100000     -0.7686240000
C                  1.0004090000     -4.6608560000      3.2067860000
C                 -0.7494740000     -2.5056310000      1.9964430000
C                  8.9492660000     -0.7435480000     -1.3467280000
C                  7.1922680000      1.4081630000     -2.5530110000
H                  7.4836580000     -2.4190380000      0.1930720000
H                  4.6285950000      1.0849090000     -1.7756560000
H                  3.5746870000     -4.3454650000      2.4323080000
H                  0.7204210000     -0.8405380000      0.4640390000
H                  1.7932000000     -5.3367900000      3.5347020000
H                  0.2362550000     -5.2662080000      2.7041340000
H                  0.5321760000     -4.2396230000      4.1047590000
H                 -1.0976920000     -3.3025560000      2.6551200000
H                 -1.3196690000     -2.5793690000      1.0636450000
H                 -1.0237290000     -1.5524810000      2.4623870000
H                  9.3962150000     -1.5895620000     -0.8198820000
H                  9.4674830000      0.1643900000     -1.0146610000
H                  9.1714060000     -0.8638530000     -2.4140100000
H                  8.2657990000      1.3058170000     -2.7193220000
H                  7.0197300000      2.4054790000     -2.1334160000
H                  6.7054620000      1.3875560000     -3.5343870000





