%chk=337-an.chk
%nproc=8
%mem=30GB
#P UB3LYP/6-311++G(d,p) nosym opt freq

Reduced

-2 1
O    -0.1229076729   -2.2940105910    0.2922663122
C    -0.0546198640   -1.0241875018    0.1304621598
C    -1.2387639225   -0.3513674726    0.1644555277
C    -2.4332334079   -1.0556124658    0.3676696789
C    -3.6540253832   -0.4161749812    0.4093408767
C    -3.7734753212    0.9434596459    0.2549882231
C    -2.6100771577    1.6451113308    0.0551388060
C    -1.3740129351    1.0136172127    0.0110006439
S     0.0981125471    1.8480156295   -0.2353406163
C     1.4646318525    0.8389232155   -0.2461537342
C     2.7715419728    1.2776748729   -0.4279752263
C     3.8329997085    0.3982597598   -0.4247158057
C     3.5657300172   -0.9345648827   -0.2357023672
C     2.2866916841   -1.3898862803   -0.0545896666
C     1.2026346649   -0.4995739860   -0.0569620087
H    -2.3628090502   -2.1418557633    0.4934316760
H    -4.5458944044   -1.0296426291    0.5717738465
H    -4.7338743036    1.4360421276    0.2890565875
H    -2.6366677455    2.7287778723   -0.0746294999
H     2.8902390750    2.3433546889   -0.5697830556
H     4.8429858848    0.7494363982   -0.5667048083
H     4.4165287945   -1.6305805111   -0.2341764931
H     2.1682649668   -2.4552156891    0.0871489436


