%chk=070.chk
%nproc=8
%mem=30GB
#P UB3LYP/6-311++G(d,p) nosym opt freq SCRF=(PCM,Solvent=n,n-DiMethylFormamide)

Oxidized

0 1
C                  1.0527490000      1.7081760000     -0.4877050000
C                 -0.2415340000      1.2259830000      0.0973780000
C                 -0.5344650000     -0.0965930000      0.1371740000
C                  0.4225710000     -1.0879370000     -0.4410830000
C                  1.6760830000     -0.6002340000     -1.0750420000
C                  1.9641130000      0.7022890000     -1.1027990000
O                  1.3518620000      2.8873570000     -0.4431430000
O                  0.1953640000     -2.2854760000     -0.4064750000
S                  3.4616310000      1.2379200000     -2.0080650000
C                  4.5083200000      2.0427620000     -0.7856980000
C                  4.4157230000      3.4215930000     -0.6099750000
C                  5.4204180000      1.2660760000     -0.0721590000
C                  6.2508000000      1.8914160000      0.8544970000
C                  5.2576180000      4.0330220000      0.3155560000
C                  6.1685350000      3.2705450000      1.0467030000
O                  3.0402040000      2.2213460000     -3.0047640000
O                  4.1274540000     -0.0064220000     -2.4101530000
H                  3.6996910000      3.9913210000     -1.1859390000
H                  5.4882820000      0.2015820000     -0.2578790000
H                  5.2033920000      5.1053290000      0.4623430000
H                  2.3310560000     -1.3451090000     -1.5133850000
H                  6.9686510000      1.3041690000      1.4150370000
C                 -1.7776030000     -0.7027350000      0.7228020000
C                 -1.1132010000      2.3293820000      0.6260660000
H                  6.8204850000      3.7534180000      1.7657560000
H                 -2.3666990000      0.0141360000      1.2897040000
H                 -1.5146960000     -1.5395010000      1.3734250000
H                 -2.4054730000     -1.1208740000     -0.0706900000
H                 -1.2574040000      3.0933470000     -0.1415820000
H                 -0.6246340000      2.8316830000      1.4661850000
H                 -2.0871460000      1.9709200000      0.9502700000


