%chk=227-an.chk
%nproc=8
%mem=30GB
#P UB3LYP/6-311++G(d,p) nosym opt freq

Reduced

-2 1
C                  5.6705580000     -5.1027020000      1.2841190000
C                  6.6811990000     -5.0269570000      0.3572820000
C                  6.5947650000     -4.0578210000     -0.7074990000
C                  4.5237900000     -4.2637710000      1.2511720000
C                  4.4362230000     -3.2811010000      0.1715640000
C                  5.4730970000     -3.2174890000     -0.7627940000
C                  3.5005400000     -4.3993920000      2.2583910000
C                  2.4149980000     -3.4840330000      2.0834560000
C                  2.3166470000     -2.5398850000      1.0581070000
C                  3.2995570000     -2.3643370000      0.0389800000
O                  3.5507090000     -5.2598960000      3.2239470000
O                  3.2036570000     -1.4950720000     -0.9016010000
C                  7.6246920000     -3.9645150000     -1.6710120000
N                  8.4935140000     -3.9131480000     -2.4517530000
H                  5.7112560000     -5.8236000000      2.0957190000
H                  7.5449580000     -5.6837410000      0.4112670000
H                  5.3765920000     -2.4770120000     -1.5510350000
H                  1.6147460000     -3.5493720000      2.8222520000
H                  1.4462310000     -1.8850450000      1.0107280000


