%chk=188-rad-PCM.chk
%nproc=8
%mem=30GB
#P UB3LYP/6-311++G(d,p) SCRF=(PCM,Solvent=n,n-DiMethylFormamide)

Radical PCM in DMF 

-1 2
O                  5.0511370000     -0.1786150000     -0.4374710000
C                  3.7184520000      0.1518860000     -0.2502880000
C                  3.4325920000      1.4960340000      0.0665770000
C                  2.1217630000      1.8766300000      0.2629940000
C                  1.0551240000      0.9568730000      0.1555730000
C                 -0.3149000000      1.4156050000      0.3741080000
O                 -0.5877510000      2.6111750000      0.6576600000
C                 -1.3572650000      0.3978230000      0.2431480000
C                 -2.7047680000      0.7730850000      0.4415400000
C                 -3.7184320000     -0.1519400000      0.3282570000
O                 -5.0511760000      0.1785820000      0.5154680000
C                 -3.4326120000     -1.4960450000      0.0113350000
C                 -2.1217520000     -1.8766370000     -0.1850170000
C                 -1.0551420000     -0.9568850000     -0.0775470000
C                  0.3149110000     -1.4156360000     -0.2960660000
O                  0.5877620000     -2.6111600000     -0.5796240000
C                  1.3572730000     -0.3978150000     -0.1651180000
C                  2.7047670000     -0.7731190000     -0.3634740000
H                  5.0960700000     -1.1174060000     -0.6458780000
H                  4.2494320000      2.2044310000      0.1496620000
H                  1.8707500000      2.9023610000      0.5076750000
H                 -2.9030360000      1.8134590000      0.6848630000
H                 -5.0961370000      1.1176130000      0.7227670000
H                 -4.2494240000     -2.2044480000     -0.0719200000
H                 -1.8706680000     -2.9023450000     -0.4297410000
H                  2.9030320000     -1.8135080000     -0.6067330000





