%chk=324-PCM.chk
%nproc=8
%mem=30GB
#P UB3LYP/6-311++G(d,p) SCRF=(PCM,Solvent=n,n-DiMethylFormamide)

Quinone PCM in DMF 

0 1
C                 -1.7950960000      2.7683770000     -0.6688170000
C                 -2.8910110000      1.9328980000     -0.4857120000
C                 -2.6811860000      0.5837730000     -0.2119870000
C                 -0.4948160000      2.2705030000     -0.5724520000
C                 -0.2708430000      0.9090750000     -0.2795430000
C                 -1.3863230000      0.0789740000     -0.1127960000
C                  0.6458080000      3.2085020000     -0.8083570000
C                  2.0770060000      2.6183500000     -0.7606070000
C                  2.1985640000      1.2255920000     -0.4127150000
C                  1.1257020000      0.4063720000     -0.1646730000
O                  0.4706260000      4.3841940000     -1.0342580000
O                  3.0279550000      3.3471060000     -0.9947410000
H                 -1.9200440000      3.8205960000     -0.8940840000
H                 -3.8979830000      2.3259090000     -0.5627420000
H                 -3.5249050000     -0.0836450000     -0.0788130000
H                 -1.2764700000     -0.9814390000      0.0800280000
H                  3.2109950000      0.8514720000     -0.3393370000
N                  1.2917190000     -0.9000220000      0.1767030000
C                  2.5868290000     -1.5367780000      0.3830690000
C                  2.4103280000     -3.0011090000      0.7676580000
H                  0.4891420000     -1.4113760000      0.5021050000
H                  3.1445880000     -1.0032880000      1.1632700000
H                  3.1716590000     -1.4581830000     -0.5394090000
H                  1.8476260000     -3.1024940000      1.7006730000
H                  3.3851930000     -3.4686670000      0.9179220000
H                  1.8884480000     -3.5566120000     -0.0162370000





