%chk=192.chk
%nproc=8
%mem=30GB
#P UB3LYP/6-311++G(d,p) nosym opt freq

Oxidized

0 1
  C    5.5240370   -3.6034196   -2.6389772
  O    4.6521541   -2.7353207   -1.9350777
  C    5.1534673   -2.0829231   -0.8207723
  C    6.4492067   -2.2507061   -0.3863851
  C    6.9541682   -1.5979249    0.7302655
  C    6.1373784   -0.7455721    1.4412999
  C    4.8335501   -0.5606526    1.0254325
  C    3.9784234    0.3361436    1.7757440
  O    4.3905121    0.9584493    2.8051917
  C    2.5907309    0.5219165    1.3186146
  C    1.7637648    1.3903266    2.0455346
  O    2.3040359    2.0192882    3.1494151
  C    0.4685342    1.5843297    1.6457527
  C   -0.4725022    2.5087539    2.3763150
  C   -1.1499544    3.3241457    1.2895351
  O   -1.9905267    4.2247322    1.9619326
  C   -2.0060152    2.5012441    0.3911776
  C   -1.4463520    1.1307851    0.0895604
  O   -2.2803285    0.1761799    0.6986092
  C   -2.8677850   -0.6710746   -0.2389391
  C   -2.5721570   -2.0995839    0.0965380
  C   -3.5567336   -3.0842954   -0.4236662
  N   -3.1429150   -3.7131478   -1.6616756
  C   -4.9421176   -2.5676588   -0.6036417
  O   -5.6468582   -2.5662474    0.6060894
  C   -4.8496821   -1.1631839   -1.1688024
  C   -6.1794114   -0.6382424   -1.6052193
  O   -4.2314445   -0.3812921   -0.2068772
  C   -0.0681675    0.9632833    0.5557296
  C    0.7545044    0.0890401   -0.1813622
  O    0.2346813   -0.5356138   -1.2688512
  C    2.0660076   -0.1114723    0.2175530
  C    2.9734125   -1.0176098   -0.5186347
  O    2.5996728   -1.6399642   -1.5287484
  C    4.3456644   -1.2186031   -0.0893966
  C   -0.1738489    4.0702156    0.4724011
  O    0.6688031    3.5132883   -0.2086620
  C   -0.2038178    5.5549858    0.4669406
  O    0.7767400    6.0893142   -0.3493564
  H    5.0837778   -3.8715475   -3.6326571
  H    5.6925426   -4.5604367   -2.0858486
  H    6.4830341   -3.0775181   -2.8644118
  H    7.1281274   -2.9141094   -0.9179365
  H    7.9875696   -1.7614358    1.0375272
  H    6.5069602   -0.2337771    2.3034479
  H    1.7965189    2.6385559    3.7153992
  H    0.0224901    3.1902802    3.0605251
  H   -1.2413289    1.9184450    2.8734207
  H   -2.9111362    4.2113245    1.6104611
  H   -2.1299911    3.0558858   -0.5662131
  H   -3.0202291    2.4192616    0.8338454
  H   -1.4867444    0.9381959   -0.9984030
  H   -2.5087815   -0.3674294   -1.2318975
  H   -1.5607308   -2.3524687   -0.2750092
  H   -2.4906530   -2.1544562    1.2210999
  H   -3.6160131   -3.9229659    0.3317459
  H   -3.1282208   -3.0775202   -2.4645678
  H   -2.3359302   -4.3414469   -1.5644971
  H   -5.4804239   -3.1833349   -1.3551836
  H   -6.6157202   -2.5114867    0.4704441
  H   -4.1635465   -1.2186379   -2.0403345
  H   -6.8258702   -1.5255369   -1.8388312
  H   -6.0844148   -0.0919607   -2.5804740
  H   -6.6681348   -0.0317982   -0.8307826
  H    0.5962584   -1.1551484   -1.9032941
  H   -1.1942104    5.9334457    0.1151244
  H   -0.0965055    5.9091630    1.5204267
  H    0.4224747    6.1665448   -1.2677129









