%chk=303-an.chk
%nproc=8
%mem=30GB
#P UB3LYP/6-311++G(d,p) nosym opt freq SCF=YQC Int=Acc2E=11

Reduced

-2 1
 C                 -2.02885100    4.80434200    5.43125300
 C                 -3.31149300    4.29442200    5.47040500
 C                 -3.76234900    3.43718900    4.43914700
 C                 -1.14215300    4.48258000    4.37437400
 C                 -1.59583100    3.61119300    3.32770400
 C                 -2.91156000    3.11489600    3.39379600
 C                  0.18344000    5.02703200    4.32768000
 C                  0.99148500    4.60831200    3.22458500
 C                  0.61578300    3.71575000    2.21494300
 C                 -0.74326300    3.23192000    2.18877200
 O                  0.69896700    5.85193600    5.17821900
 O                 -1.23369300    2.52520700    1.24294700
 O                  2.23318700    5.18676700    3.22970200
 H                 -1.66072800    5.46788100    6.20672500
 H                 -3.97593400    4.55240700    6.29175800
 H                 -4.77154300    3.03470600    4.46690300
 H                 -3.23133700    2.46523500    2.58631500
 H                  2.17108800    5.73474000    4.05033500
 C                  2.96863700    2.84404300    1.59931800
 C                  3.06618000    2.09012400    2.77005900
 C                  4.12122000    3.01118800    0.82336800
 C                  5.33478300    2.43934800    1.19911400
 C                  5.41858000    1.68382400    2.37000100
 C                  4.27756000    1.51453700    3.15317700
 H                  2.18387500    1.97200700    3.38858800
 H                  4.05408300    3.59342800   -0.09038000
 H                  6.21677400    2.58570500    0.58188600
 H                  4.33054300    0.93703000    4.07128900
 H                  6.36290100    1.23993700    2.67087400
 C                  1.65026400    3.45305900    1.10869600
 H                  1.92812700    4.44404000    0.72330600
 N                  1.18048900    2.69517600   -0.08500700
 C                  1.17047900    1.23199200    0.04745300
 C                  0.52464700    0.60708300   -1.19030300
 C                  0.54048000   -0.92563700   -1.17472000
 C                 -0.08513200   -1.55865200   -2.42389400
 C                 -0.04768100   -3.09187800   -2.43150400
 C                 -0.65238300   -3.72009100   -3.69324000
 H                  0.19535700    2.94459400   -0.17272100
 H                  0.61487300    0.90312600    0.93754700
 H                  2.20118400    0.87318000    0.13687900
 H                  1.04626400    0.97461500   -2.08367300
 H                 -0.51128800    0.96044800   -1.25686800
 H                  0.01011900   -1.28416400   -0.28348500
 H                  1.57667000   -1.27779300   -1.07598400
 H                  0.43431600   -1.18293600   -3.31598300
 H                 -1.12581400   -1.22136500   -2.51544100
 H                 -0.57794400   -3.47106600   -1.54807800
 H                  0.99294300   -3.42713000   -2.32626900
 H                 -0.12898100   -3.32864700   -4.57587000
 H                 -1.69663200   -3.39593100   -3.79337900
 C                 -0.59494800   -5.25251700   -3.71485200
 C                 -1.18348900   -5.87620100   -4.98636100
 C                 -1.11159700   -7.40780700   -5.01769600
 C                 -1.68833900   -8.02811100   -6.29621000
 C                 -1.60782400   -9.55913700   -6.33317300
 C                 -2.17748000  -10.17747800   -7.61578600
 C                 -2.09165800  -11.70834500   -7.65363500
 C                 -2.65764500  -12.32583300   -8.93810700
 C                 -2.56827300  -13.85677300   -8.97519400
 C                 -3.13243500  -14.47253400  -10.25879100
 H                 -1.12627300   -5.64704200   -2.83875200
 H                  0.44899200   -5.57527400   -3.60558100
 H                 -0.65677400   -5.47346100   -5.86172700
 H                 -2.22997500   -5.56126700   -5.09250700
 H                 -1.64412600   -7.81288800   -4.14711200
 H                 -0.06541300   -7.72188500   -4.90514700
 H                 -1.15820900   -7.61864600   -7.16631300
 H                 -2.73601800   -7.71885300   -6.40732000
 H                 -2.14143800   -9.97032200   -5.46605700
 H                 -0.56033400   -9.86813300   -6.21865100
 H                 -1.64521400   -9.76495900   -8.48309800
 H                 -3.22570700   -9.87145400   -7.73066500
 H                 -2.62574800  -12.12192900   -6.78795800
 H                 -1.04341300  -12.01411900   -7.53767100
 H                 -2.12501400  -11.91334200   -9.80492400
 H                 -3.70640500  -12.02340400   -9.05567100
 H                 -3.10065000  -14.27001100   -8.10906100
 H                 -1.51996800  -14.15934700   -8.85719600
 H                 -4.19167000  -14.22343800  -10.38924200
 H                 -3.05197900  -15.56503900  -10.25022700
 H                 -2.59583500  -14.11208900  -11.14378000
























