%chk=214-rad.chk
%nproc=8
%mem=30GB
#P UB3LYP/6-311++G(d,p) nosym  opt freq SCRF=(PCM,Solvent=n,n-DiMethylFormamide)

Radical

-1 2
C                  5.0428730000     -2.2495910000      0.7203280000
C                  5.8689310000     -1.4205440000     -0.0114600000
C                  5.3165950000     -0.5500460000     -0.9776570000
C                  3.6435620000     -2.2490420000      0.5246980000
C                  3.0862760000     -1.3703400000     -0.4504040000
C                  3.9522040000     -0.5315250000     -1.1865520000
C                  2.8104730000     -3.1479670000      1.3258130000
C                  1.3709880000     -3.0904560000      1.0667860000
C                  0.8145720000     -2.2116750000      0.0930690000
C                  1.6457330000     -1.3129330000     -0.7088260000
C                  0.5053370000     -3.9296430000      1.8027010000
C                 -0.5840980000     -2.2187310000     -0.0997530000
C                 -1.4053550000     -3.0478980000      0.6352010000
O                  3.3017600000     -3.9216180000      2.1864900000
O                  1.1530710000     -0.5383120000     -1.5668860000
H                  5.4391290000     -2.9274970000      1.4676480000
H                  6.9423210000     -1.4361840000      0.1537460000
H                  5.9658420000      0.1025240000     -1.5540870000
H                 -2.4788440000     -3.0396090000      0.4622010000
H                  3.5006270000      0.1257490000     -1.9208430000
H                  0.9640490000     -4.5892780000      2.5324390000
H                 -0.9861930000     -1.5490430000     -0.8514530000
C                 -0.8643170000     -3.9242260000      1.6102800000
C                 -1.7783460000     -4.7938570000      2.4469560000
C                 -2.3027550000     -4.0530010000      3.6736740000
O                 -3.2013510000     -4.9200920000      4.3898200000
H                 -1.2493810000     -5.6901410000      2.7844630000
H                 -2.6383330000     -5.1278460000      1.8555280000
H                 -2.8249510000     -3.1394400000      3.3615180000
H                 -1.4605000000     -3.7617690000      4.3131390000
H                 -3.4721520000     -4.4715300000      5.1958430000


