%chk=287.chk
%nproc=8
%mem=30GB
#P UB3LYP/6-311++G(d,p) nosym opt freq

Oxidized

0 1
C                 -0.3334720000      3.8108310000     -0.2057530000
C                 -1.5446120000      3.2135090000     -0.5411690000
C                 -1.5728040000      1.8838440000     -0.9657730000
C                  0.8502020000      3.0745450000     -0.2964910000
C                  0.8250890000      1.7366380000     -0.7231380000
C                 -0.3931490000      1.1472230000     -1.0563390000
C                  2.1413680000      3.6926830000      0.0555190000
C                  3.3756920000      2.8645570000     -0.0645500000
C                  3.3758500000      1.5689850000     -0.4643030000
C                  2.0911830000      0.9330190000     -0.8244090000
O                  2.2658050000      4.8495790000      0.4417770000
O                  2.0492880000     -0.2312390000     -1.1971500000
H                 -0.2861400000      4.8406040000      0.1266760000
H                 -2.4652770000      3.7812810000     -0.4725490000
H                 -2.5174230000      1.4202670000     -1.2267590000
H                 -0.3971810000      0.1149460000     -1.3835940000
O                  4.5023150000      3.5156360000      0.2682420000
C                  4.6374980000      0.7618120000     -0.5869580000
C                  5.2427560000      0.8102630000     -2.0065250000
C                  6.5218200000     -0.0242790000     -2.1282400000
C                  7.1396380000      0.0127800000     -3.5305870000
C                  8.4196330000     -0.8210730000     -3.6582480000
H                  4.2270770000      4.4146630000      0.5307460000
H                  4.4098230000     -0.2769450000     -0.3350430000
H                  5.3721880000      1.1339770000      0.1316020000
H                  5.4574140000      1.8521900000     -2.2699160000
H                  4.4988010000      0.4474270000     -2.7235620000
H                  6.3011600000     -1.0643350000     -1.8565280000
H                  7.2590200000      0.3333120000     -1.3977970000
H                  7.3574370000      1.0537010000     -3.8026390000
H                  6.4012200000     -0.3440490000     -4.2600080000
H                  8.2016670000     -1.8616280000     -3.3849890000
H                  9.1580990000     -0.4642000000     -2.9286100000
C                  9.0376890000     -0.7863080000     -5.0606110000
H                  9.2561180000      0.2543190000     -5.3337360000
H                  8.2985660000     -1.1422610000     -5.7900740000
C                 10.3165910000     -1.6210730000     -5.1899920000
H                 10.0989090000     -2.6620990000     -4.9173260000
H                 11.0567130000     -1.2657520000     -4.4609680000
C                 10.9353510000     -1.5872960000     -6.5921210000
C                 12.2122050000     -2.4244660000     -6.7117310000
H                 11.1538560000     -0.5474900000     -6.8646140000
H                 10.1964000000     -1.9427070000     -7.3206840000
H                 12.9833230000     -2.0708570000     -6.0198470000
H                 12.6275330000     -2.3790610000     -7.7224290000
H                 12.0186000000     -3.4765640000     -6.4794420000


