%chk=183-rad.chk
%nproc=8
%mem=30GB
#P UB3LYP/6-311++G(d,p) nosym  opt freq

Radical

-1 2
C                  4.8656380000     -2.8534800000     -0.3530750000
C                  5.5918880000     -1.9642240000     -1.1185270000
C                  5.0012850000     -0.7546220000     -1.5440220000
C                  3.5307640000     -2.5717410000      0.0148560000
C                  2.9355970000     -1.3565450000     -0.4118750000
C                  3.6975830000     -0.4625270000     -1.1938460000
C                  2.7858510000     -3.5208580000      0.8199550000
C                  1.4228000000     -3.1864600000      1.1713830000
C                  0.8086660000     -1.9575410000      0.7447430000
C                  1.5561890000     -1.0050200000     -0.0642300000
C                  0.6804640000     -4.1116610000      1.9633290000
C                 -0.6286670000     -3.8245820000      2.3195570000
C                 -0.5510630000     -1.6709390000      1.1216370000
C                 -1.2112130000     -2.6283770000      1.8988090000
O                  3.3285720000     -4.6165180000      1.2026270000
O                  1.0747690000      0.0951420000     -0.4711200000
O                  1.2262690000     -5.2760710000      2.3814540000
Br                -3.0468960000     -2.2988590000      2.4376170000
N                 -1.1537230000     -0.5100500000      0.7243350000
H                  5.2929910000     -3.7890080000     -0.0125620000
H                  6.6168730000     -2.1933650000     -1.3941040000
H                  5.5728090000     -0.0549470000     -2.1463180000
H                  3.2201520000      0.4581800000     -1.5067800000
H                 -1.1800980000     -4.5349740000      2.9204020000
H                  2.1646930000     -5.2635730000      2.0077790000
H                 -0.5801560000      0.1224500000      0.1690120000
H                 -2.0957630000     -0.3130020000      1.0103860000





