%chk=126-PCM.chk
%nproc=8
%mem=30GB
#P UB3LYP/6-311++G(d,p) SCRF=(PCM,Solvent=n,n-DiMethylFormamide)

Quinone PCM in DMF 

0 1
C                 -3.9477040000      0.9599470000      0.9304890000
C                 -3.2888200000     -0.0739300000     -0.0130980000
C                 -3.4756110000     -1.4741360000      0.5984770000
C                 -4.0009690000     -0.0447800000     -1.3861810000
C                 -1.8066010000      0.2857480000     -0.2031800000
C                 -1.4509110000      1.5334750000     -0.7506060000
C                 -0.1264840000      1.8967590000     -0.9381360000
C                  0.9045730000      1.0210280000     -0.5837300000
C                  2.3201160000      1.4307940000     -0.7930820000
O                  2.6051080000      2.5185870000     -1.2689700000
C                  3.3811640000      0.4572440000     -0.3974060000
C                  4.7234220000      0.8045020000     -0.5779660000
C                  5.7298010000     -0.0839800000     -0.2179420000
C                  5.4037920000     -1.3293340000      0.3265130000
C                  4.0722770000     -1.6831080000      0.5097200000
C                  3.0529560000     -0.7957030000      0.1505470000
C                  1.6312750000     -1.2023100000      0.3589020000
O                  1.3490010000     -2.2905160000      0.8348200000
C                  0.5728630000     -0.2277410000     -0.0369460000
C                 -0.7690640000     -0.5791590000      0.1460890000
H                 -5.0046100000      0.7167490000      1.0741730000
H                 -3.4632280000      0.9594020000      1.9106830000
H                 -3.8918990000      1.9744690000      0.5291070000
H                 -3.0543730000     -2.2570930000     -0.0375980000
H                 -4.5426030000     -1.6818710000      0.7137730000
H                 -3.0159310000     -1.5525520000      1.5872170000
H                 -3.9467040000      0.9406760000     -1.8545570000
H                 -5.0583990000     -0.2981730000     -1.2658310000
H                 -3.5548560000     -0.7685320000     -2.0736790000
H                 -2.2250140000      2.2360770000     -1.0363220000
H                  0.1341260000      2.8597240000     -1.3600430000
H                  4.9526290000      1.7745140000     -1.0015420000
H                  6.7690520000      0.1901070000     -0.3599780000
H                  6.1902140000     -2.0210060000      0.6066280000
H                  3.7968320000     -2.6425300000      0.9298010000
H                 -0.9654170000     -1.5533500000      0.5713400000





