%chk=199-rad.chk
%nproc=8
%mem=30GB
#P UB3LYP/6-311++G(d,p) nosym  opt freq

Radical

-1 2
O                 -4.3374280000      0.9658390000     -1.5542180000
C                 -3.1686540000      0.5578080000     -0.9489290000
C                 -1.9209880000      0.9749960000     -1.3791290000
C                 -0.7462960000      0.5400210000     -0.7392320000
C                  0.5568870000      1.0020590000     -1.2216790000
O                  0.6610350000      1.7820500000     -2.1986880000
C                  1.7293320000      0.5004160000     -0.4980780000
C                  3.0174280000      0.9042400000     -0.9084710000
C                  4.1510250000      0.4580920000     -0.2577660000
C                  4.0323470000     -0.4208520000      0.8426510000
C                  2.7852620000     -0.8321040000      1.2655670000
C                  1.6109960000     -0.3880950000      0.6144490000
C                  0.3146990000     -0.8341200000      1.0775650000
O                  0.1842130000     -1.6338360000      2.0768180000
C                 -0.8450660000     -0.3442650000      0.3694170000
C                 -2.1351550000     -0.7567530000      0.7903470000
O                 -2.3009350000     -1.5987460000      1.8403540000
C                 -3.2847620000     -0.3166140000      0.1458550000
O                 -4.5151550000     -0.7377240000      0.5823150000
H                 -4.0980900000      1.5538640000     -2.2777370000
H                 -1.8177730000      1.6500710000     -2.2232950000
H                  3.0800180000      1.5785860000     -1.7548800000
H                  5.1330780000      0.7811730000     -0.5898070000
H                  4.9235330000     -0.7717660000      1.3544120000
H                  2.6684160000     -1.5055010000      2.1066640000
H                 -1.3430330000     -1.7871120000      2.1521120000
H                 -4.3349350000     -1.3217280000      1.3333850000


