%chk=029-an.chk
%nproc=8
%mem=30GB
#P UB3LYP/6-311++G(d,p) nosym opt freq

Reduced

-2 1
Cl   -2.6444941641    1.7189377028    0.7315356538
C    -1.2080026875    0.7661328226    0.4275117761
C    -1.2023344565   -0.5460034994    0.5406418975
Cl   -2.7036342453   -1.3234292972    1.0133379370
C    -0.0545271196   -1.3925951080    0.3051601015
O    -0.0859108298   -2.6383456639    0.4224807255
C     1.1981284583   -0.7586096141   -0.0879652794
C     1.2438627545    0.5640108409   -0.2158682161
Cl    2.7288470714    1.3468135431   -0.6846359699
C     0.0699385596    1.3892989567    0.0285155141
O     0.0754308992    2.6493927708   -0.0830703474
Cl    2.5826957598   -1.7756034543   -0.3724014166


