%chk=202-an.chk
%nproc=8
%mem=30GB
#P UB3LYP/6-311++G(d,p) nosym opt freq

Reduced

-2 1
O                  4.8930030000      0.8889110000     -0.7218100000
C                  3.6297890000      0.3090650000     -0.5171080000
C                  3.5204460000     -1.1056140000     -0.4374380000
C                  2.2698340000     -1.6624870000     -0.2201470000
C                  1.1057540000     -0.8848350000     -0.1062110000
C                 -0.1787710000     -1.5554020000      0.1073160000
O                 -0.2358230000     -2.8156600000      0.1945540000
C                 -1.3443610000     -0.6726220000      0.2104090000
C                 -2.6650860000     -1.1820850000      0.4149130000
O                 -2.8900510000     -2.5604600000      0.5196210000
C                 -3.7451860000     -0.3300460000      0.5131530000
C                 -3.6041590000      1.0727750000      0.4121880000
C                 -2.3560190000      1.6685070000      0.2110800000
O                 -2.2106590000      2.9674170000      0.1173830000
C                 -1.1938870000      0.7694760000      0.1074730000
C                  0.0857420000      1.3510220000     -0.1016670000
O                  0.2282130000      2.7150790000     -0.2028770000
C                  1.2263060000      0.5499920000     -0.2080110000
C                  2.5325040000      1.1154160000     -0.3997410000
H                  5.5432700000      0.2629130000     -0.3801880000
H                  4.4000950000     -1.7300050000     -0.5838070000
H                  2.1415110000     -2.7379680000     -0.1483750000
H                 -3.8470890000     -2.6487800000      0.5824470000
H                 -4.7378260000     -0.7576280000      0.6761530000
H                 -4.4712140000      1.7233230000      0.4925270000
H                 -0.7326750000      3.0571080000     -0.0902200000
H                  2.6363400000      2.1925890000     -0.4416180000


