%chk=084-rad.chk
%nproc=8
%mem=30GB
#P UB3LYP/6-311++G(d,p) nosym  opt freq

Radical

-1 2
C                  2.8349410000     -0.4175550000      0.4160030000
O                  1.6565390000      0.2837510000      0.8035350000
C                  0.4686980000     -0.2980040000      0.4140120000
C                 -0.3688510000      0.4063180000     -0.4251220000
O                  0.0804950000      1.5928380000     -0.9649550000
C                 -0.6758080000      2.7479080000     -0.6123030000
C                 -1.6808700000     -0.1039070000     -0.8187370000
O                 -2.4433230000      0.5338650000     -1.6010280000
C                 -2.0328310000     -1.3895640000     -0.2639610000
C                 -1.1952370000     -2.0953040000      0.5585030000
C                  0.1003090000     -1.6020800000      0.9619920000
O                  0.8605440000     -2.2414330000      1.7452020000
H                  2.9210940000     -0.4478370000     -0.6786680000
H                  3.6759170000      0.1494260000      0.8227000000
H                  2.8360040000     -1.4309490000      0.8229610000
H                 -0.2164870000      3.5872890000     -1.1401040000
H                 -0.6157370000      2.9305190000      0.4692180000
H                 -1.7180870000      2.6391500000     -0.9195880000
H                 -3.0052050000     -1.7810810000     -0.5488610000
H                 -1.4821050000     -3.0633500000      0.9592020000


