%chk=259-an.chk
%nproc=8
%mem=30GB
#P UB3LYP/6-311++G(d,p) nosym opt freq

Reduced

-2 1
C         -1.25008        2.85964        0.01814
C         -2.56259        2.36541        0.01631
C         -2.78451        0.98571        0.01481
C         -0.15688        1.97479        0.01842
C         -0.38724        0.58465        0.01689
C         -1.70584        0.09835        0.01510
C          1.24014        2.48103        0.02026
C          2.38295        1.53213        0.02027
C          2.14938        0.19912        0.01881
C          0.77167       -0.34067        0.01715
O          1.46013        3.68342        0.02169
O          0.60302       -1.55082        0.01591
H         -1.08644        3.93038        0.01929
H         -1.90259       -0.96646        0.01390
O          3.64359        2.05306        0.02172
O         -3.61662        3.20647        0.01597
H         -3.79603        0.59927        0.01339
H          2.97016       -0.51056        0.01880
C          4.82342        1.33671        0.02125
H         -3.50745        4.16818        0.01692
H          5.67709        2.04498        0.02274
H          4.88891        0.70557       -0.89056
H          4.88802        0.70279        0.93119








