%chk=082-an-PCM.chk
%nproc=8
%mem=30GB
#P UB3LYP/6-311++G(d,p) SCRF=(PCM,Solvent=n,n-DiMethylFormamide)

Reduced 

-2 1
C                  2.5941740000     -0.1623960000      0.7048720000
O                  1.8283780000      0.2085310000     -0.4330580000
C                  0.4388350000      0.1028000000     -0.2545430000
C                 -0.3077320000      1.2582720000     -0.4875290000
C                 -1.7392410000      1.3089630000     -0.4248200000
O                 -2.4306840000      2.3854770000     -0.6447030000
C                 -2.3288740000      0.0450960000     -0.0834320000
C                 -1.5775860000     -1.1072520000      0.1514330000
C                 -0.1492560000     -1.1742660000      0.0692830000
O                  0.5317450000     -2.2655050000      0.2543920000
H                  2.3506900000     -1.1845090000      1.0091470000
H                  3.6526920000     -0.0870560000      0.4249380000
H                  2.4092210000      0.5326090000      1.5431790000
H                  0.2267000000      2.1742350000     -0.7328550000
H                 -3.4171470000      0.0098900000     -0.0139270000
H                 -2.0819160000     -2.0448890000      0.3901820000





