%chk=215.chk
%nproc=8
%mem=30GB
#P UB3LYP/6-311++G(d,p) nosym opt freq SCRF=(PCM,Solvent=n,n-DiMethylFormamide)

Oxidized

0 1
C                  5.0119440000     -2.4471410000      0.5524180000
C                  5.8279100000     -1.7421090000     -0.3241100000
C                  5.2624370000     -0.9051090000     -1.2904290000
C                  3.6215780000     -2.3218870000      0.4721100000
C                  3.0521900000     -1.4789960000     -0.5002690000
C                  3.8818690000     -0.7741570000     -1.3783040000
C                  2.7718990000     -3.0898090000      1.4259580000
C                  1.2899050000     -2.9234520000      1.3138130000
C                  0.7188980000     -2.0821230000      0.3443330000
C                  1.5758410000     -1.3191700000     -0.6181860000
C                  0.4667640000     -3.6236230000      2.1994550000
C                 -0.6702460000     -1.9437510000      0.2664470000
C                 -1.4933780000     -2.6389320000      1.1420540000
O                  3.2580200000     -3.8266160000      2.2657630000
O                  1.0750160000     -0.5965290000     -1.4622300000
H                  5.4291350000     -3.1009540000      1.3081760000
H                  6.9052090000     -1.8420310000     -0.2575470000
H                  5.9014710000     -0.3564070000     -1.9727290000
H                 -2.5703570000     -2.5357310000      1.1026910000
H                  3.4232680000     -0.1313090000     -2.1193270000
H                  0.9122990000     -4.2613350000      2.9523440000
H                 -1.0851140000     -1.2852800000     -0.4861990000
C                 -0.9078950000     -3.4727360000      2.0961120000
S                 -1.9704180000     -4.3716440000      3.2277110000
O                 -1.2561920000     -4.6525960000      4.4646310000
O                 -3.2807690000     -3.7368620000      3.2678830000
O                 -2.0760350000     -5.7553570000      2.3528010000
C                 -2.8211730000     -6.8380180000      2.9665990000
H                 -2.3525540000     -7.1337860000      3.9064120000
H                 -2.7703700000     -7.6519700000      2.2471630000
H                 -3.8589050000     -6.5406220000      3.1268150000


