%chk=098-an.chk
%nproc=8
%mem=30GB
#P UB3LYP/6-311++G(d,p) nosym opt freq

Reduced

-2 1
C                  1.0546970000      4.3268410000      4.9829140000
C                  1.6722920000      3.9687180000      3.7471820000
C                  1.6085160000      2.7045860000      3.1170730000
C                  0.8652500000      1.5914080000      3.7274390000
C                  0.2527760000      1.9498310000      4.9678250000
C                  0.3200250000      3.2106490000      5.5964790000
O                  1.1459520000      5.5141160000      5.4567290000
O                  0.7662490000      0.4148050000      3.2418260000
H                  2.2221320000      4.7671020000      3.2640760000
C                 -0.3970940000      3.3035560000      6.8686300000
O                 -1.1350600000      2.4482200000      7.3635500000
O                 -0.1906220000      4.4729330000      7.5728430000
C                 -0.8869230000      4.5693070000      8.7985060000
H                 -0.6294270000      5.5515890000      9.2042260000
H                 -0.5897760000      3.7844730000      9.5049290000
H                 -1.9722260000      4.4957140000      8.6605490000
C                  2.2875890000      2.5095920000      1.8430800000
O                  3.1045580000      3.6211730000      1.4873310000
O                  2.2569910000      1.5715580000      1.0640120000
C                  3.7448770000      3.5054630000      0.2365480000
H                 -0.3078500000      1.1635090000      5.4619700000
H                  4.3201600000      4.4273780000      0.1051760000
H                  3.0266450000      3.3990100000     -0.5861720000
H                  4.4190270000      2.6410080000      0.1963000000


