%chk=272.chk
%nproc=8
%mem=30GB
#P UB3LYP/6-311++G(d,p) nosym opt freq

Oxidized

0 1
C                 -0.9066440000      3.8561250000     -0.0210390000
C                 -2.0215790000      3.1002540000      0.3323100000
C                 -1.9070250000      1.7187460000      0.4918130000
C                  0.3249790000      3.2279440000     -0.2126340000
C                  0.4407490000      1.8402370000     -0.0512010000
C                 -0.6791700000      1.0878590000      0.2986620000
C                  1.5132420000      4.0278520000     -0.5905380000
C                  2.8303180000      3.3275220000     -0.8051310000
C                  2.9305070000      1.9729320000     -0.5767430000
C                  1.7532480000      1.1641520000     -0.2544870000
O                  1.4616140000      5.2377780000     -0.7428320000
O                  1.8498670000     -0.0615920000     -0.1694170000
N                  3.8102100000      4.1400840000     -1.2483650000
H                 -0.9723630000      4.9289390000     -0.1533540000
H                 -2.9783990000      3.5866950000      0.4828440000
H                 -2.7760420000      1.1319390000      0.7669440000
H                 -0.5702880000      0.0170050000      0.4159550000
H                  3.5794030000      5.1253750000     -1.2456150000
H                  4.7732870000      3.8505230000     -1.0768530000
N                  4.0745660000      1.1674340000     -0.7536780000
H                  3.8126980000      0.1857930000     -0.7705310000
C                  5.4079190000      1.4431400000     -0.6217090000
C                  6.3237720000      0.2448530000     -0.8372220000
C                  7.5351920000      0.2595960000      0.0982610000
O                  5.8597880000      2.5587540000     -0.3782340000
H                  6.6599630000      0.2959050000     -1.8798470000
H                  5.7644570000     -0.6899830000     -0.7370680000
H                  8.0788590000      1.2003180000      0.0053990000
H                  8.2127860000     -0.5618330000     -0.1452410000
H                  7.2290160000      0.1492750000      1.1416330000


