%chk=033.chk
%nproc=8
%mem=30GB
#P UB3LYP/6-311++G(d,p) nosym opt freq SCRF=(PCM,Solvent=n,n-DiMethylFormamide)

Oxidized

0 1
C                 -1.8007020000      1.1262530000      0.6408300000
C                 -1.1602690000     -0.0979820000     -0.0607830000
C                 -1.7000620000     -1.3719490000      0.6151580000
C                 -1.5800560000     -0.1307920000     -1.5520380000
C                  0.3659180000     -0.0134330000      0.0445360000
C                  1.1204140000     -0.9486660000      0.6567950000
C                  2.5949090000     -0.8852390000      0.7690960000
O                  3.2219540000     -1.7665400000      1.3374960000
C                  3.2800160000      0.2815990000      0.1692720000
C                  2.5676230000      1.2303100000     -0.4465390000
C                  1.0855580000      1.1664750000     -0.5596530000
O                  0.5017250000      2.0697430000     -1.1369960000
H                 -2.8901760000      1.0414170000      0.5933590000
H                 -1.5147210000      1.1640220000      1.6961600000
H                 -1.5089800000      2.0614740000      0.1656730000
H                 -2.7881280000     -1.3937680000      0.5182820000
H                 -1.4647470000     -1.4023280000      1.6826620000
H                 -1.3104900000     -2.2812520000      0.1490560000
H                 -1.1352520000     -0.9898420000     -2.0630270000
H                 -2.6673550000     -0.2287220000     -1.6196410000
H                 -1.2847880000      0.7779800000     -2.0740000000
H                  0.6866760000     -1.8273440000      1.1166610000
H                  4.3600710000      0.3144760000      0.2594320000
H                  3.0208630000      2.1041070000     -0.9017880000


