%chk=164-new.chk
%nproc=8
%mem=30GB
#P UB3LYP/6-311++G(d,p) nosym opt freq SCF=YQC

Oxidized

-3 1
 N                  2.98325800   -1.53872000   -3.00613900
 C                  2.18521000   -0.37161600   -2.83358400
 C                  1.43781100   -0.14728300   -1.67503900
 C                  2.26870700    0.61628100   -3.81948700
 C                  0.80341100    1.09098600   -1.47061600
 C                  1.62445800    1.83162800   -3.62660400
 C                  0.90640000    2.08969800   -2.46489700
 S                  0.24268800    3.78910200   -2.25694100
 O                 -0.99312400    3.59049100   -1.43624300
 O                  1.31316700    4.52355400   -1.54249500
 O                 -0.01528500    4.26809800   -3.63512900
 N                  0.03538500    1.38702600   -0.32492100
 C                  0.11178300    0.90440900    0.93441500
 N                  0.97642000   -0.09694900    1.22909100
 C                  0.94127200   -0.45879000    2.49276900
 N                  0.20702000    0.00392500    3.47128600
 C                 -0.62751400    1.01552900    3.07303800
 N                 -0.71293800    1.48588600    1.83535500
 Cl                 2.06013400   -1.76610000    2.93396800
 N                 -1.38228600    1.50823800    4.09207500
 C                 -2.32041500    2.56324600    4.18260300
 C                 -2.68327100    3.38732000    3.11397600
 C                 -2.89222300    2.76994900    5.45036000
 C                 -3.61915200    4.40093900    3.33599700
 C                 -3.81689200    3.78388700    5.65141400
 C                 -4.18930900    4.60874300    4.58763400
 S                 -4.51492500    4.06799600    7.32276100
 O                 -4.10170000    2.87449400    8.10966400
 O                 -3.88818400    5.33782700    7.77953600
 O                 -5.98191900    4.17666900    7.10276300
 H                  3.99143600   -1.39590400   -3.11957200
 H                  1.39131600   -0.90417000   -0.90696600
 H                  2.83553200    0.42295200   -4.72279200
 H                  1.66503100    2.61024100   -4.37865000
 H                 -0.58070200    2.20445900   -0.44461100
 H                 -1.19644600    1.02871000    4.96118700
 H                 -2.24482000    3.23775500    2.13904500
 H                 -2.63014200    2.13825900    6.29320800
 H                 -3.89981900    5.03622300    2.50204200
 H                 -4.92045700    5.39152500    4.74906600
 C                  2.64208500   -2.85512000   -2.95421600
 C                  3.64387200   -3.86985300   -2.96895800
 C                  1.26256900   -3.24060600   -2.99187600
 C                  0.88373300   -4.54606900   -3.02523300
 C                  3.24174600   -5.26825100   -2.91582300
 C                  1.85872300   -5.60787800   -2.90557500
 C                  4.22258900   -6.33058100   -2.86000900
 C                  5.65725100   -5.94212500   -2.88691800
 C                  6.04726500   -4.59461700   -2.97643500
 C                  5.04240400   -3.50316900   -3.04224500
 C                  6.64052300   -6.94271700   -2.82450900
 C                  7.98819500   -6.61237400   -2.84805000
 C                  8.37745100   -5.26628800   -2.93662800
 C                  7.41385300   -4.27016600   -3.00205100
 O                  3.94266700   -7.55417600   -2.77987600
 O                  5.46210200   -2.32201400   -3.15861000
 N                  1.42313600   -6.87150900   -2.78245800
 H                  0.50401800   -2.46931900   -3.06474900
 H                  6.30912000   -7.97177900   -2.75686000
 H                  8.74088700   -7.39444100   -2.79555500
 H                  9.43172500   -5.00400300   -2.95134500
 H                  7.68344500   -3.22334200   -3.07016800
 H                  2.12942900   -7.59681800   -2.74222700
 H                  0.41841300   -7.02050400   -2.69582200
 S                 -0.86760600   -4.95717300   -3.42563200
 O                 -1.18929000   -6.08969800   -2.50028000
 O                 -0.79308800   -5.37997200   -4.84501600
 O                 -1.62685200   -3.72071100   -3.17361700



























































