%chk=041.chk
%nproc=8
%mem=30GB
#P UB3LYP/6-311++G(d,p) nosym opt freq SCF=YQC Int=Acc2E=11

Oxidized

0 1
C                 16.37980600    2.93726200    0.93992600
 C                 15.57029600    1.95198100    1.68369600
 C                 16.01006000    1.35307700    2.80058000
 C                 17.37846700    1.69040100    3.31063400
 C                 18.21787300    2.67820400    2.56375300
 C                 17.74542600    3.27756200    1.44659600
 O                 15.93240800    3.45921000   -0.07207100
 O                 17.79786200    1.15681900    4.32679700
 C                 18.53640500    4.28729100    0.66398000
 C                 19.58075700    2.97169800    3.12699500
 H                 14.59299600    1.73881800    1.26574700
 H                 18.86180500    5.11348900    1.30320600
 H                 17.93861700    4.68653300   -0.15361200
 H                 19.43999100    3.83425600    0.24215200
 H                 19.82398200    2.27288700    3.92541200
 H                 19.61980600    3.98572200    3.54056800
 H                 20.34881200    2.91256600    2.35119200
 C                 15.22884000    0.33286200    3.59601300
 C                 13.78158100    0.19820800    3.21311400
 C                 13.17372400   -0.83914700    2.62058200
 C                 11.68415400   -0.78973300    2.34786700
 C                 11.31106000   -0.73035200    0.84514000
 C                  9.82233500   -0.73665200    0.63208700
 C                  9.04517600    0.21581300    0.09712800
 C                  7.54841500    0.00234300   -0.00868800
 C                  6.70929800    0.90927600    0.92584400
 C                  5.23128200    0.69682600    0.74818000
 C                  4.33311300    0.25196600    1.63852500
 C                  2.87649600    0.11356800    1.24469800
 C                 13.87161900   -2.10794800    2.19740400
 C                  9.55271900    1.53037400   -0.44330600
 C                  4.66207400   -0.13986500    3.05888300
 C                  1.92830400    1.11097800    1.95687600
 C                  0.49011900    0.90268400    1.57036600
 C                 -0.33342000    1.73152100    0.91289600
 C                 -1.75676000    1.30697600    0.61123000
 C                 -2.03770900    1.04690200   -0.89043700
 C                 -3.47439300    0.68366300   -1.14591200
 C                 -3.98202200   -0.46948600   -1.60420300
 C                 -5.47999400   -0.62677900   -1.77290600
 C                 -6.13307900   -1.60832400   -0.76717000
 C                 -7.60647700   -1.77987600   -1.01390300
 C                 -8.63689700   -1.44242900   -0.22535100
 C                -10.05919500   -1.69627300   -0.68340000
 C                -10.86002600   -0.41129400   -1.01347300
 C                -12.28123600   -0.71124200   -1.40262400
 C                -12.89186200   -0.51160500   -2.57938700
 C                  0.04544000    3.11326200    0.43806400
 C                 -3.15613700   -1.67115900   -1.99427800
 C                 -8.49787100   -0.81760200    1.14153600
 C                -12.23548800    0.11067100   -3.78775000
 C                -14.34379400   -0.90760200   -2.75894700
 C                -14.56054500   -2.11874200   -3.70108500
 C                -16.01774700   -2.43506500   -3.89532000
 C                -16.69601700   -3.53393300   -3.53489200
 C                -16.08113300   -4.73207400   -2.85325300
 C                -18.18110300   -3.63774800   -3.81915400
 C                -19.07586800   -3.58637300   -2.55520900
 C                -20.53409800   -3.75122300   -2.88299900
 C                -21.53405200   -2.87515900   -2.71701400
 C                -21.38268900   -1.49436200   -2.12953500
 C                -22.94584600   -3.22750400   -3.11935200
 H                 15.30719100    0.61527000    4.65263300
 H                 15.76091800   -0.62085900    3.53147000
 H                 13.16381300    1.05694100    3.47205400
 H                 11.24813900    0.07880100    2.84937800
 H                 11.20921200   -1.67659200    2.78850600
 H                 11.74112300   -1.60033600    0.33428100
 H                 11.77763600    0.15132500    0.40015300
 H                  9.32561700   -1.64481000    0.97465200
 H                  7.31006000   -1.04144000    0.21501900
 H                  7.22897800    0.18103500   -1.04436300
 H                  6.93900500    1.95929800    0.70693300
 H                  7.02061100    0.73646500    1.95853200
 H                  4.86227900    0.93133300   -0.25068400
 H                  2.53620200   -0.90707000    1.46697700
 H                  2.77419400    0.24840500    0.16407500
 H                 14.92748200   -2.12769400    2.46610200
 H                 13.80593900   -2.25027800    1.11385700
 H                 13.39031100   -2.97866500    2.65715800
 H                 10.63647900    1.62682900   -0.38825200
 H                  9.11804500    2.37653500    0.09921400
 H                  9.25873900    1.64879800   -1.49279500
 H                  5.73282600   -0.14811700    3.26066800
 H                  4.27096500   -1.14014200    3.27776000
 H                  4.19607900    0.54198100    3.77866300
 H                  2.26192700    2.12813200    1.73941700
 H                  2.02105400    0.97935300    3.04180700
 H                  0.08363500   -0.06542900    1.86447000
 H                 -2.44975600    2.08240200    0.96507900
 H                 -1.99467300    0.39758200    1.17048600
 H                 -1.35583300    0.27066900   -1.24473000
 H                 -1.79992900    1.95274000   -1.46122500
 H                 -4.18534300    1.47578700   -0.90916200
 H                 -5.69562500   -0.97825500   -2.79109400
 H                 -5.96532100    0.34807900   -1.67042700
 H                 -5.93167300   -1.25605700    0.24690700
 H                 -5.64808000   -2.58792300   -0.85707700
 H                 -7.84931300   -2.23304900   -1.97548700
 H                -10.59827800   -2.25065500    0.09684600
 H                -10.05030800   -2.33604000   -1.57052500
 H                -10.33373800    0.13756900   -1.79754400
 H                -10.86979600    0.24084200   -0.13166700
 H                -12.87670100   -1.16273400   -0.60853500
 H                  1.06453400    3.39168100    0.70441000
 H                 -0.63086800    3.86198700    0.86732800
 H                 -0.04628900    3.19798300   -0.64994100
 H                 -2.08434600   -1.50297400   -1.89438200
 H                 -3.35736200   -1.94978900   -3.03546400
 H                 -3.41168900   -2.54347900   -1.38338700
 H                 -7.46041100   -0.68002800    1.44447500
 H                 -8.98899500   -1.44200100    1.89731800
 H                 -8.98618900    0.16186600    1.18153500
 H                -11.20291000    0.40766900   -3.60720800
 H                -12.79068100    1.00092600   -4.10635100
 H                -12.23688600   -0.57842000   -4.63892100
 H                -14.90669500   -0.05252300   -3.15735000
 H                -14.78289600   -1.14339500   -1.78531600
 H                -14.01094200   -2.97455800   -3.30297600
 H                -14.11876600   -1.89449300   -4.67960000
 H                -16.58486600   -1.64568600   -4.38951900
 H                -15.00694300   -4.63202100   -2.70112300
 H                -16.25395900   -5.63785800   -3.44647200
 H                -16.53817300   -4.90914100   -1.87386800
 H                -18.38414200   -4.57778200   -4.35007700
 H                -18.48354700   -2.82924200   -4.49086100
 H                -18.88504400   -2.64926000   -2.02736000
 H                -18.77812000   -4.39160100   -1.87254700
 H                -20.78895000   -4.71447200   -3.32541900
 H                -20.35440300   -1.24591300   -1.86878800
 H                -21.99396700   -1.39268100   -1.22483000
 H                -21.74428800   -0.73684900   -2.83477700
 H                -23.00977600   -4.23397800   -3.53780000
 H                -23.32917200   -2.52179400   -3.86608600
 H                -23.62471100   -3.17151600   -2.25983900































































