%chk=118.chk
%nproc=8
%mem=30GB
#P UB3LYP/6-311++G(d,p) nosym opt freq

Oxidized

0 1
Cl    5.1873047029   -1.4903252847   -0.0033114532
C     3.6494639789   -0.6356412037   -0.1523758635
C     3.6175411328    0.7032289684   -0.4748131741
C     2.4193220894    1.3750554197   -0.5923997020
C     1.2334309624    0.6988049098   -0.3845905738
C    -0.0352204439    1.4095163025   -0.5089298101
O    -0.0808123554    2.6291197954   -0.8020218517
C    -1.2835869955    0.6668093512   -0.2827117672
C    -2.5135902643    1.3141571570   -0.3931775600
C    -3.7062727394    0.6521275450   -0.1885448116
C    -3.7102076493   -0.6906609105    0.1361746831
C    -2.4815886017   -1.3045161484    0.2385982829
C    -1.2769073234   -0.6645252321    0.0388437470
C     0.0023950187   -1.3890526022    0.1661254386
O    -0.0284092278   -2.5968502217    0.4592210722
C     1.2349597505   -0.6459875781   -0.0595862860
C     2.4603364291   -1.3045104320    0.0537689691
H     4.5727654911    1.2244672319   -0.6365122996
H     2.4340576199    2.4413937426   -0.8507201243
H    -2.4899777815    2.3766892830   -0.6508624785
H    -4.6432166139    1.1919827380   -0.2840044622
H    -4.6372006039   -1.2234095097    0.2996389828
H    -2.4220807084   -2.3681163519    0.4934478229
H     2.4974941325   -2.3697569694    0.3098795296


