%chk=052-PCM.chk
%nproc=8
%mem=30GB
#P UB3LYP/6-311++G(d,p) SCRF=(PCM,Solvent=n,n-DiMethylFormamide)

Quinone PCM in DMF 

0 1
C                  1.1247380000      2.8557130000      1.4729510000
C                 -0.2367200000      2.5520660000      0.9394140000
C                 -0.5065130000      1.3452790000      0.3979210000
C                  0.5872250000      0.3343750000      0.2635840000
C                  1.9863460000      0.6747840000      0.6745750000
C                  2.2414190000      1.8862310000      1.2279500000
O                  1.3040510000      3.8786750000      2.1130260000
O                  0.3514270000     -0.7688520000     -0.2069890000
C                 -1.2447950000      3.6523390000      1.1079180000
C                 -1.8635240000      0.9335230000     -0.1083970000
C                  3.0133940000     -0.3942080000      0.4496520000
S                  3.8586900000      2.2631600000      1.8644090000
C                  4.1808630000      3.9939630000      1.3022600000
C                  5.6002090000      4.3587940000      1.7267650000
C                  6.0185910000      5.7252910000      1.1975090000
O                  5.4046740000      6.3652570000      0.3925220000
O                  7.1958030000      6.1992360000      1.6904650000
H                 -0.8492080000      4.5940580000      0.7196850000
H                 -1.4502440000      3.8247100000      2.1688260000
H                 -2.1810930000      3.4271030000      0.6010080000
H                 -2.6459570000      1.1582550000      0.6194120000
H                 -1.8753330000     -0.1336260000     -0.3222430000
H                 -2.1118700000      1.4635160000     -1.0339760000
H                  2.7426440000     -1.0040500000     -0.4116070000
H                  3.0626790000     -1.0680050000      1.3127220000
H                  4.0036500000      0.0416120000      0.3158320000
H                  3.4521900000      4.6595110000      1.7543200000
H                  4.0863290000      4.0362730000      0.2182550000
H                  6.3219200000      3.6231010000      1.3501450000
H                  5.6868570000      4.3528600000      2.8193920000
H                  7.5672090000      5.5902420000      2.3405150000





