%chk=048-an.chk
%nproc=8
%mem=30GB
#P UB3LYP/6-311++G(d,p) nosym opt freq

Reduced

-2 1
 C                 -1.50013700    0.33040400    0.92297000
 C                 -1.99116900    1.47173700    0.32232400
 C                 -1.08353600    2.39302700   -0.34693100
 O                 -1.49971300    3.45962600   -0.90820800
 C                  0.31176200    2.02311200   -0.33249800
 C                  0.80279400    0.88177900    0.26814600
 C                 -0.10483700   -0.03950400    0.93741500
 O                  0.31134000   -1.10610600    1.49868600
 H                  0.97581200    2.72095100   -0.83566200
 C                  2.26651800    0.49749600    0.28029300
 C                  3.24938400    1.47091900   -0.37726500
 C                  4.70638000    0.99640600   -0.29182200
 C                  5.71625500    1.94567400   -0.95178200
 C                  7.16781900    1.45919500   -0.84219200
 C                  8.24442500    2.40851400   -1.40511000
 C                  9.65018100    1.91274200   -1.03510400
 C                  8.12479500    2.60124300   -2.92427100
 C                 -3.45489300    1.85601800    0.31017800
 C                 -4.43778200    0.88249100    0.96754900
 C                 -5.89478200    1.35699000    0.88207800
 C                 -6.90467900    0.40762700    1.54186700
 C                 -8.35624500    0.89409400    1.43224800
 C                 -9.43286700   -0.05530500    1.99500100
 C                -10.83861000    0.44048400    1.62496700
 C                 -9.31332200   -0.24819900    3.51414700
 H                 -2.16418700   -0.36744000    1.42612500
 H                  2.36764800   -0.49218500   -0.18868600
 H                  2.56602400    0.32303700    1.32306800
 H                  3.16512700    2.45820700    0.09443900
 H                  2.97999300    1.61677700   -1.43093500
 H                  4.79059400    0.00403800   -0.75534000
 H                  4.97928200    0.85806200    0.76318800
 H                  5.63288800    2.93870600   -0.48970200
 H                  5.44152100    2.07787100   -2.00496700
 H                  7.26330200    0.48397900   -1.34031000
 H                  7.39233400    1.27631800    0.21716400
 H                  8.10126600    3.38977000   -0.93102000
 H                  9.76925700    1.82331600    0.05079700
 H                 10.42972900    2.59068900   -1.39955000
 H                  9.84586600    0.92566200   -1.47180800
 H                  8.90561800    3.27271900   -3.29785300
 H                  7.15740500    3.02471200   -3.20867200
 H                  8.23808900    1.64394700   -3.44711000
 H                 -3.75435000    2.03063700   -0.73258200
 H                 -3.55605200    2.84562700    0.77930800
 H                 -4.16845800    0.73650000    2.02121700
 H                 -4.35347500   -0.10473200    0.49572000
 H                 -6.16762500    1.49545500   -0.17293100
 H                 -5.97903900    2.34930200    1.34570900
 H                 -6.63000400    0.27531200    2.59505300
 H                 -6.82126800   -0.58535000    1.07967600
 H                 -8.58070200    1.07708500    0.37290100
 H                 -8.45177200    1.86925300    1.93047000
 H                 -9.28966400   -1.03650600    1.52081100
 H                -11.61816700   -0.23751600    1.98929400
 H                -10.95762500    0.53002700    0.53907000
 H                -11.03433700    1.42751300    2.06176800
 H                -10.09415500   -0.91972900    3.88761000
 H                 -9.42666300    0.70903800    4.03708500
 H                 -8.34594100   -0.67168300    3.79855800


