%chk=031.chk
%nproc=8
%mem=30GB
#P UB3LYP/genecp nosym opt freq 

Oxidized

0 1
I    -3.4139642717   -0.8931038463   -0.1518286092
C    -1.3967909640   -0.3188450663   -0.0613867989
C    -1.0896734005    0.9634974493   -0.0289530299
I    -2.5705554244    2.4774138439   -0.0651199642
C     0.3339560293    1.3183269966    0.0340806322
O     0.5994030574    2.5534516440    0.0640954737
C     1.3922640822    0.3211616145    0.0612439244
C     1.0819911631   -0.9599075362    0.0287047039
I     2.5645016704   -2.4771752671    0.0648744868
C    -0.3286230717   -1.3213768589   -0.0339081118
O    -0.5969945688   -2.5512412562   -0.0639567457
I     3.4244856987    0.8877982827    0.1521540386

C O 0
6-311++G(d,p)
****
I 0
def2TZVP
****

I 0
def2TZVP






