%chk=148-an.chk
%nproc=8
%mem=30GB
#P UB3LYP/6-311++G(d,p) nosym opt freq

Reduced

-2 1
C                 -2.9834310000      3.7677500000      0.5419470000
C                 -4.2302790000      3.2018150000      0.5871930000
C                 -4.4248960000      1.8083020000      0.4399320000
C                 -1.8287090000      2.9695780000      0.3504660000
C                 -1.9984210000      1.5441790000      0.1960000000
C                 -3.3108700000      1.0167270000      0.2526900000
C                 -0.5309080000      3.6170050000      0.3016060000
C                  0.5850430000      2.7150550000      0.0848130000
C                  0.4201580000      1.2891020000     -0.0700310000
C                 -0.8800630000      0.6431310000     -0.0223700000
C                  1.8929430000      3.2535670000      0.0050610000
C                  2.9764750000      2.4420140000     -0.2058600000
C                  2.8435220000      1.0418900000     -0.3594870000
C                  1.5766170000      0.5014250000     -0.2847260000
O                 -0.3835380000      4.8776680000      0.4328560000
O                 -1.0284240000     -0.6152470000     -0.1641260000
H                 -3.4078210000     -0.0574910000      0.1357980000
H                  1.4227600000     -0.5668280000     -0.3950780000
H                 -2.8470490000      4.8386340000      0.6409320000
H                  2.0046990000      4.3270860000      0.1063420000
H                  3.7154490000      0.4192790000     -0.5166680000
O                  4.2358990000      3.0866600000     -0.3823230000
C                  5.3444700000      2.7007170000      0.2729970000
C                  6.5362420000      3.5150920000     -0.1919200000
O                  5.4196710000      1.8084730000      1.0874650000
O                 -5.3384840000      4.0950410000      0.6716330000
H                  6.2397170000      4.5106550000     -0.5219180000
H                  7.0157700000      3.0061250000     -1.0388120000
H                  7.2673740000      3.5789670000      0.6135660000
C                 -6.3300130000      3.9337200000      1.5651850000
C                 -7.4026220000      4.9839080000      1.3499850000
O                 -6.4040280000      3.0618170000      2.4013550000
H                 -5.4195160000      1.3826330000      0.4875780000
H                 -6.9866850000      5.9068910000      0.9460480000
H                 -7.9174560000      5.1739280000      2.2913730000
H                 -8.1438090000      4.6049030000      0.6336640000


