%chk=006-an.chk
%nproc=8
%mem=30GB
#P UB3LYP/genecp nosym opt freq 

Reduced

-2 1
C         -1.28681        1.95976        0.41126
C         -2.64429        1.33804        0.26982
C         -2.71516        0.04217       -0.12646
C         -1.49116       -0.73353       -0.42705
C         -0.16558       -0.09968       -0.29577
C         -0.06545        1.17509        0.10156
O         -1.17062        3.10988        0.80513
O         -1.57766       -1.89715       -0.78548
H          0.72939       -0.67240       -0.51979
I          1.85272        2.05378        0.28933
C         -3.89061        2.17822        0.59262
C         -4.02012        3.35346       -0.39071
C         -5.21269        1.38903        0.59206
H         -3.66225       -0.47015       -0.24341
H         -3.76414        2.58039        1.62178
H         -4.15428        2.97587       -1.42734
H         -3.12776        4.00935       -0.36967
H         -4.89687        3.98190       -0.12435
H         -5.43641        0.98181       -0.41748
H         -6.05317        2.05216        0.88966
H         -5.16396        0.55720        1.32685

H C O 0
6-311++G(d,p)
****
I 0
def2TZVP
****

I 0
def2TZVP












