%chk=320.chk
%nproc=8
%mem=30GB
#P UB3LYP/6-311++G(d,p) nosym opt freq

Oxidized

0 1
C                 -0.3585340000      3.9976830000      0.1230630000
C                  0.5955120000      3.0527730000      0.1598980000
C                  0.3457540000      1.6322220000     -0.1571110000
C                 -0.9068110000      1.2427130000     -0.5288420000
C                  1.4670730000      0.7110500000     -0.0568340000
C                  1.4590180000     -0.7345120000      0.1051010000
C                  2.8015680000      1.0760830000     -0.1460490000
C                  2.8114000000     -1.1593560000      0.0913070000
C                  0.4628620000     -1.7030900000      0.3138070000
C                  0.8327920000     -3.0317910000      0.4698760000
C                  2.1816690000     -3.4259180000      0.4297670000
C                  3.1917110000     -2.4918260000      0.2473320000
N                  3.5980530000     -0.0305190000     -0.0692840000
H                 -1.1240220000      0.2234110000     -0.8176650000
H                  3.2406150000      2.0491240000     -0.2971090000
H                 -0.5818780000     -1.4285790000      0.3684850000
H                  0.0665060000     -3.7812550000      0.6294840000
H                  2.4369980000     -4.4719750000      0.5517900000
H                  4.2348290000     -2.7871880000      0.2328170000
H                  4.6030630000     -0.0239080000     -0.1315610000
C                 -1.7429500000      3.6635100000     -0.2541310000
C                 -2.0233310000      2.1749250000     -0.6212090000
O                 -2.6302970000      4.4885140000     -0.2831420000
O                 -3.1397660000      1.8431550000     -0.9755750000
H                 -0.1550300000      5.0319400000      0.3771970000
H                  1.5981260000      3.3295140000      0.4652870000


