%chk=011-rad.chk
%nproc=8
%mem=30GB
#P UB3LYP/6-311++G(d,p) nosym  opt freq

Radical

-1 2
Cl    3.0119662382   -0.8494028740   -0.1892625155
C     1.3520105379   -0.3109268331   -0.0828475129
C     1.0749062566    0.9874903787   -0.0288476796
C    -0.3111508172    1.4472571121    0.0603134288
O    -0.6007679705    2.6785330731    0.1129814554
C    -1.3602746359    0.4342179642    0.0869926133
C    -1.0857178791   -0.8765756333    0.0327620667
Cl   -2.3572799714   -2.0801689370    0.0658278212
C     0.2992462916   -1.3228511144   -0.0559361856
O     0.5273990358   -2.5565423329   -0.1053315364
H     1.8523673417    1.7545838575   -0.0481320358
H    -2.4027044278    0.6943853390    0.1514800803


