%chk=176-an.chk
%nproc=8
%mem=30GB
#P UB3LYP/6-311++G(d,p) nosym opt freq

Reduced

-2 1
N                 -2.9260460000     -2.5947260000     -0.1104500000
C                 -2.6120180000     -1.2330640000      0.1222620000
C                 -3.6165580000     -0.3658210000      0.5143000000
C                 -3.3636340000      1.0098500000      0.6691830000
C                 -2.1065310000      1.5485230000      0.4466550000
N                 -1.9301210000      2.9499840000      0.5639450000
C                 -1.0101290000      0.6855510000      0.0864450000
C                  0.3382840000      1.2481280000     -0.0488150000
O                  0.5611770000      2.5182480000     -0.0341260000
C                  1.4013340000      0.3142340000     -0.2024060000
C                  1.1367710000     -1.0849090000     -0.4830920000
C                  2.1773280000     -1.9176070000     -0.9136320000
C                  3.4814690000     -1.4580600000     -1.0564970000
C                  3.7860090000     -0.1374130000     -0.6817730000
C                  2.7928290000      0.7047970000     -0.2167230000
N                  3.2898580000      1.9028520000      0.4267350000
O                  2.7970880000      2.2517140000      1.5074920000
O                  4.2638760000      2.5102820000     -0.1012420000
C                 -0.1966320000     -1.6536030000     -0.3990710000
O                 -0.3776090000     -2.9128160000     -0.6151870000
C                 -1.2740940000     -0.7353920000     -0.0779530000
H                 -3.5142310000     -2.9805660000      0.6172900000
H                 -2.0516540000     -3.1184640000     -0.2618140000
H                 -4.6253700000     -0.7526780000      0.6477020000
H                 -4.1783480000      1.6839310000      0.9279930000
H                 -2.3164650000      3.3055980000      1.4297530000
H                 -0.9201400000      3.1563710000      0.4513360000
H                  1.9140600000     -2.9459790000     -1.1373220000
H                  4.2723900000     -2.1231440000     -1.3927600000
H                  4.8071050000      0.2241820000     -0.6782290000


