%chk=168-an.chk
%nproc=8
%mem=30GB
#P UB3LYP/6-311++G(d,p) nosym opt freq

Reduced

-2 1
N                 -5.0646480000     -0.6339880000     -0.6134770000
C                 -3.7399490000     -0.2067070000     -0.2969100000
C                 -3.5621130000      1.0275210000      0.3879420000
C                 -2.2896790000      1.4833270000      0.6653620000
C                 -1.1286960000      0.7755360000      0.2774250000
C                  0.1810540000      1.3282550000      0.5870350000
O                  0.3301290000      2.4381490000      1.1978340000
C                  1.3072360000      0.5208640000      0.1491100000
C                  2.6257140000      0.9756110000      0.4042400000
C                  3.7405960000      0.2655880000      0.0080940000
N                  5.0660850000      0.7567120000      0.2071280000
C                  3.5626590000     -0.9802050000     -0.6554300000
C                  2.2899980000     -1.4542320000     -0.8992520000
C                  1.1291320000     -0.7369390000     -0.5287890000
C                 -0.1806340000     -1.2905330000     -0.8367850000
O                 -0.3297670000     -2.4065730000     -1.4362800000
C                 -1.3067140000     -0.4772290000     -0.4097430000
C                 -2.6252190000     -0.9317770000     -0.6652780000
H                 -5.7142900000     -0.4920170000      0.1620580000
H                 -5.0893520000     -1.6157560000     -0.8718720000
H                 -4.4349510000      1.6126380000      0.6695980000
H                 -2.1362420000      2.4225340000      1.1872270000
H                  2.7214820000      1.9192960000      0.9348370000
H                  5.7088450000      0.0254010000      0.5164250000
H                  5.0881950000      1.5077030000      0.8903340000
H                  4.4358040000     -1.5400280000     -0.9836900000
H                  2.1364520000     -2.4027540000     -1.4039580000
H                 -2.7211290000     -1.8903940000     -1.1683750000


