%chk=170-rad.chk
%nproc=8
%mem=30GB
#P UB3LYP/6-311++G(d,p) nosym  opt freq SCRF=(PCM,Solvent=n,n-DiMethylFormamide)

Radical

-1 2
C                  3.8911310000      1.2849040000     -1.3017110000
N                  2.5084490000      1.0580270000     -0.9925200000
C                  2.0485900000     -0.0162870000     -0.2777520000
C                  2.9240310000     -1.0018720000      0.1968150000
C                  2.4385830000     -2.0996530000      0.9253670000
C                  1.0924360000     -2.2341800000      1.1911890000
C                  0.1740130000     -1.2645100000      0.7338130000
C                 -1.2435450000     -1.4670950000      1.0519070000
O                 -1.6408590000     -2.4643540000      1.7047510000
C                 -2.1738610000     -0.4493100000      0.5682110000
C                 -3.5537880000     -0.5809180000      0.8374290000
C                 -4.4607990000      0.3618160000      0.3963420000
C                 -4.0097620000      1.4810670000     -0.3378350000
C                 -2.6644600000      1.6289830000     -0.6120080000
C                 -1.7188950000      0.6765450000     -0.1706620000
C                 -0.3050720000      0.8751320000     -0.4855880000
O                  0.0518140000      1.9028310000     -1.1495670000
C                  0.6311630000     -0.1320360000     -0.0112070000
H                  4.3262340000      0.4764980000     -1.9099440000
H                  4.5158680000      1.3849960000     -0.4000580000
H                  3.9736380000      2.2130610000     -1.8711780000
H                  1.7704430000      1.7098740000     -1.2733200000
H                  3.9858710000     -0.9181040000     -0.0002220000
H                  3.1409610000     -2.8489160000      1.2806880000
H                  0.6986010000     -3.0729340000      1.7506760000
H                 -3.8685860000     -1.4503740000      1.4030700000
H                 -5.5188110000      0.2448060000      0.6124030000
H                 -4.7213590000      2.2241470000     -0.6860040000
H                 -2.2920300000      2.4778540000     -1.1730850000


