%chk=016.chk
%nproc=8
%mem=30GB
#P UB3LYP/genecp nosym opt freq 

Oxidized

0 1
 C                 -1.59913200    0.94536600    1.58226500
 C                 -2.82221900    0.19696300    1.24850400
 C                 -2.99060100   -0.57587000    0.16098000
 C                 -1.82961900   -0.67935000   -0.79268500
 C                 -0.55472000    0.07385000   -0.46229200
 C                 -0.44087400    0.83668000    0.64308800
 O                 -1.88105500   -1.33931300   -1.80891900
 O                 -1.55403500    1.61063700    2.57677300
 I                  1.25262600    1.92711800    1.20719200
 I                  0.97202500   -0.18574300   -1.87401400
 H                 -3.60681700    0.32662800    1.98444600
 C                 -4.33625400   -1.31080100   -0.05086000
 C                 -5.46861100   -0.25361200   -0.07567100
 C                 -4.55177400   -2.26845800    1.14820900
 C                 -4.45433800   -2.14627000   -1.34225200
 H                 -5.33046400    0.44854000   -0.90219700
 H                 -5.52164800    0.32104100    0.85139800
 H                 -6.43163400   -0.75203900   -0.21516300
 H                 -4.58067400   -1.73637800    2.10159100
 H                 -3.75529800   -3.01556600    1.20117500
 H                 -5.50138700   -2.79726900    1.02945600
 H                 -4.34109400   -1.54135200   -2.24167500
 H                 -5.45179600   -2.59559900   -1.35803400
 H                 -3.71986500   -2.94958400   -1.38863300

H C O 0
6-311++G(d,p)
****
I 0
def2TZVP
****

I 0
def2TZVP









