%chk=261.chk
%nproc=8
%mem=30GB
#P UB3LYP/6-311++G(d,p) nosym opt freq

Oxidized

0 1
C                  2.9066240000      2.5200460000     -0.3659310000
O                  2.5439330000      1.1519830000     -0.2359310000
C                  1.2386830000      0.8126160000     -0.1598220000
C                  0.2169670000      1.7676800000     -0.1897070000
C                 -1.1136510000      1.3944040000     -0.1159230000
C                 -1.4827130000      0.0491620000     -0.0071480000
O                 -2.7740630000     -0.3399040000      0.0589430000
C                 -3.8040230000      0.6375770000      0.0116390000
C                 -0.4713420000     -0.9420750000      0.0271930000
C                 -0.8376220000     -2.3912750000      0.1350140000
O                 -1.9804520000     -2.7972110000      0.2751180000
C                  0.2630420000     -3.3822200000      0.0727800000
C                  1.5459860000     -3.0222390000      0.0028390000
C                  1.9712640000     -1.6031270000     -0.0161330000
O                  3.1679370000     -1.3520330000     -0.0029780000
C                  0.8974830000     -0.5580530000     -0.0481780000
H                  3.9940530000      2.5258120000     -0.4145710000
H                  2.5814210000      3.1069690000      0.5002460000
H                  2.4997900000      2.9594680000     -1.2829770000
H                  0.4552140000      2.8188280000     -0.2739220000
H                 -1.8692550000      2.1667680000     -0.1430130000
H                 -4.7344340000      0.0773550000      0.0760400000
H                 -3.7410000000      1.3321770000      0.8562620000
H                 -3.7844210000      1.1984910000     -0.9296710000
H                 -0.0549090000     -4.4192970000      0.1105530000
H                  2.3564920000     -3.7427040000     -0.0188460000





