%chk=131.chk
%nproc=8
%mem=30GB
#P UB3LYP/6-311++G(d,p) nosym opt freq

Oxidized

0 1
C    -4.8219371037    1.1356851937   -1.5949085237
C    -3.6002921542    0.6205092668   -0.8949398098
C    -3.6944727448   -0.2158859419    0.1953475259
C    -2.5795247375   -0.7048178920    0.8586850691
C    -2.6946285816   -1.6003143612    2.0257022214
C    -1.3050136824   -0.3549975077    0.4300972560
C    -0.1210982733   -0.8609054986    1.1171432329
O    -0.2282001798   -1.6330584221    2.1232365110
C     1.2248222085   -0.4997302925    0.6753289275
C     2.3389174829   -0.9962996004    1.3486537281
C     3.5729526655   -0.6175065097    0.8813822161
C     4.7980407096   -1.1143529515    1.5574978684
C     3.7377637962    0.2124953585   -0.1989726600
C     2.5848159490    0.6822191556   -0.8381034157
C     2.7138761347    1.5817207225   -2.0099692856
C     1.3226706346    0.3372861235   -0.4156819635
C     0.1391176821    0.8422671172   -1.1015114858
O     0.2131969469    1.6092719125   -2.1016160663
C    -1.2161368441    0.4830872978   -0.6625179226
C    -2.3324178308    0.9643835737   -1.3159087322
H    -5.6539804494    0.4779717686   -1.3326807427
H    -5.0657021935    2.1614403490   -1.2164143913
H    -4.6549819168    1.2114190283   -2.6914492883
H    -4.6783427665   -0.4848023654    0.5246972707
H    -2.3161128073   -2.6247972677    1.8437032886
H    -2.3406848143   -1.1478121397    2.9735352366
H    -3.8027835060   -1.7476813460    2.1953122811
H     2.2058619541   -1.6578066530    2.2096434165
H     5.3365435703   -1.7536045323    0.8269576432
H     4.5735722247   -1.6804194456    2.4763633949
H     5.4589417933   -0.2499320103    1.7943513562
H     4.6869306327    0.5140255437   -0.5716354792
H     3.8120239028    1.7551780530   -2.2206181558
H     2.2943124491    2.5886530046   -1.7748171453
H     2.3266746995    1.1480387733   -2.9470818259
H    -2.2347248507    1.6190724955   -2.1688115504


