%chk=027-an.chk
%nproc=8
%mem=30GB
#P HF/6-311++G(d,p) nosym 

Anion example when even SCF=YQC doesn't converge. Run HF calculation first here

-2 1
 C                  0.64913700   -1.72478000   -0.95057700
 C                 -0.50611000   -1.14565300   -0.27853100
 C                 -0.43089300    0.01892000    0.44212700
 C                  0.81040700    0.77783500    0.59762500
 C                  1.94538800    0.17123900   -0.08978200
 C                  1.90866100   -0.98093200   -0.82544900
 O                  0.59184700   -2.79271200   -1.60169100
 O                  0.88283800    1.83367600    1.25183200
 Br                -2.13760600   -2.13363200   -0.47250700
 Br                -1.94791300    0.78073500    1.32959600
 Br                 3.60174700    1.15659400    0.11819500
 C                  3.09762600   -1.59049100   -1.52362300
 C                  3.83314400   -2.63033500   -0.65698400
 C                  5.01578700   -3.27772400   -1.38528200
 C                  5.75964600   -4.31907100   -0.54159700
 C                  6.94269800   -4.97199000   -1.26569600
 C                  7.67914300   -6.01165100   -0.41470800
 H                  3.79704700   -0.80483800   -1.81864900
 H                  2.73316100   -2.08882400   -2.42559700
 H                  3.11782900   -3.40368700   -0.35867400
 H                  4.18749700   -2.14788500    0.26125200
 H                  5.72157200   -2.49641200   -1.69848700
 H                  4.65437600   -3.75154800   -2.30745100
 H                  5.05402700   -5.09944700   -0.22783300
 H                  6.11922000   -3.84655300    0.38213000
 H                  7.64808300   -4.19231500   -1.57952300
 H                  6.58352600   -5.44475100   -2.18828800
 H                  8.07943400   -5.56107600    0.49953600
 H                  8.51674900   -6.45910700   -0.95916000
 H                  7.00716400   -6.82208500   -0.11373300

--link1--

%chk=027-an.chk
%nproc=8
%mem=30GB
#P UB3LYP/6-311++G(d,p) nosym guess=read geom=check nosym opt freq

Then here read in HF orbitals and run B3LYP

-2 1












