%chk=076.chk
%nproc=8
%mem=30GB
#P UB3LYP/6-311++G(d,p) nosym opt freq SCRF=(PCM,Solvent=n,n-DiMethylFormamide)

Oxidized

0 1
C                 -0.1693120000      1.8911260000     -2.4345710000
C                 -1.6063010000      1.7721850000     -2.0944400000
C                 -2.1065420000      0.6629580000     -1.5361630000
C                 -1.2365180000     -0.4961280000     -1.2325710000
C                  0.2030200000     -0.3875960000     -1.5735560000
C                  0.7114120000      0.7156450000     -2.1437310000
O                  0.2826460000      2.9174770000     -2.9183020000
O                 -1.6834530000     -1.5105480000     -0.7147070000
C                  3.2375070000      0.9580780000     -1.6213270000
C                  4.5690490000      0.9155580000     -2.0682970000
C                  2.9728780000      1.1752720000     -0.2608910000
C                  4.0233140000      1.3476990000      0.6370040000
C                  5.6132950000      1.0815580000     -1.1691810000
C                  5.3412390000      1.2986960000      0.1853150000
H                 -2.2198570000      2.6367830000     -2.3203910000
H                 -3.1548050000      0.5631230000     -1.2795980000
H                  0.8121790000     -1.2545570000     -1.3412410000
H                  4.7652450000      0.7500810000     -3.1201750000
H                  1.9524950000      1.2156860000      0.0989180000
H                  3.8132300000      1.5191240000      1.6860690000
H                  6.6387600000      1.0437160000     -1.5169120000
H                  6.1578650000      1.4300180000      0.8858820000
C                  2.1490180000      0.7936010000     -2.6140360000
O                  2.3507540000      0.7085450000     -3.8145370000





