%chk=267.chk
%nproc=8
%mem=30GB
#P UB3LYP/6-311++G(d,p) nosym opt freq

Oxidized

0 1
C                 -1.2505660000      2.7490210000     -0.5135910000
C                 -2.5404520000      2.2362530000     -0.4279950000
C                 -2.7481610000      0.9373590000      0.0422650000
C                 -0.1600360000      1.9640510000     -0.1280130000
C                 -0.3694880000      0.6585990000      0.3443380000
C                 -1.6663580000      0.1507980000      0.4271460000
C                  1.2129940000      2.5320590000     -0.2272830000
C                  2.3563850000      1.6430340000      0.2112280000
C                  2.1319500000      0.3821480000      0.6557550000
C                  0.7898240000     -0.1914970000      0.7596310000
O                  1.4263280000      3.6540950000     -0.6382370000
O                  0.6236470000     -1.3321920000      1.1726110000
H                 -1.0669780000      3.7532050000     -0.8754200000
H                 -1.8036570000     -0.8588360000      0.7943730000
O                  3.5295230000      2.2631110000      0.1017250000
H                 -3.3851280000      2.8463760000     -0.7269560000
H                 -3.7547770000      0.5400850000      0.1078460000
H                  2.9320450000     -0.2781860000      0.9623280000
C                  4.7691860000      1.5955400000      0.4706630000
C                  5.7478730000      2.7107910000      0.8035310000
C                  5.2408320000      0.7048490000     -0.6740580000
H                  4.5772570000      0.9988760000      1.3682920000
H                  6.7072640000      2.2857820000      1.1088970000
H                  5.3665980000      3.3295750000      1.6177560000
H                  5.9107730000      3.3486340000     -0.0682790000
H                  6.1682200000      0.1994690000     -0.3922590000
H                  5.4334010000      1.3083470000     -1.5644170000
H                  4.5037100000     -0.0590330000     -0.9275260000


