%chk=243-an.chk
%nproc=8
%mem=30GB
#P UB3LYP/6-311++G(d,p) nosym opt freq SCRF=(PCM,Solvent=n,n-DiMethylFormamide)

Reduced

-2 1
C                  3.7315980000     -1.0399480000     -0.3068030000
C                  2.4311280000     -0.2958890000     -0.1027470000
C                  2.4327070000      1.1231810000     -0.0040540000
C                  1.2495200000      1.8129400000      0.1880480000
C                  0.0031000000      1.1567790000      0.2851320000
C                 -1.2226070000      1.9345120000      0.4690100000
O                 -1.2220110000      3.2199150000      0.5462560000
C                 -2.3991190000      1.1386810000      0.5611940000
C                 -2.4285100000     -0.2635460000      0.4870790000
C                 -3.7376080000     -1.0050980000      0.5823990000
C                 -1.2479480000     -1.0492410000      0.3023540000
O                 -1.2787030000     -2.3369230000      0.2234050000
C                 -0.0119370000     -0.2818370000      0.2052380000
C                  1.2203760000     -0.9562620000      0.0153630000
H                  4.4671100000     -0.8266650000      0.4887140000
H                  3.5757420000     -2.1233370000     -0.3217000000
H                  4.2202110000     -0.7668420000     -1.2495330000
H                  3.3745340000      1.6643620000     -0.0887620000
H                  1.2354510000      2.8965740000      0.2620170000
H                 -3.3356380000      1.6810690000      0.7002620000
H                 -3.7308950000     -1.7246800000      1.4131310000
H                 -4.5758800000     -0.3113640000      0.7225520000
H                 -3.9235010000     -1.6057420000     -0.3199300000
H                  1.1728800000     -2.0406380000     -0.0346900000


