%chk=316-rad.chk
%nproc=8
%mem=30GB
#P UB3LYP/6-311++G(d,p) nosym  opt freq

Radical

-1 2
O                 -1.3128890000     -2.5356770000      0.9701770000
C                 -1.1681490000     -1.3820420000      0.5004690000
C                 -2.3856890000     -0.6190100000      0.0806470000
O                 -2.4379130000     -0.1674800000     -1.2903240000
C                 -2.2876070000      0.8289820000     -0.2550240000
C                 -0.9703920000      1.5356940000     -0.1770470000
O                 -0.9519300000      2.7863880000     -0.2663300000
C                  0.1931130000      0.7020590000      0.0179120000
C                  1.4819480000      1.2908280000     -0.0533550000
C                  2.6261630000      0.5596620000      0.1676890000
C                  2.5324550000     -0.8232150000      0.4890820000
C                  1.2979440000     -1.4239580000      0.5774700000
C                  0.0978470000     -0.7040550000      0.3445350000
H                 -3.3260460000     -1.0294780000      0.4443080000
H                 -3.1566160000      1.4737200000     -0.1365660000
H                  1.5296990000      2.3482960000     -0.2894310000
H                  3.6001950000      1.0349450000      0.0971990000
H                  3.4350870000     -1.4015280000      0.6634480000
H                  1.2027780000     -2.4741290000      0.8311330000


