%chk=309.chk
%nproc=8
%mem=30GB
#P UB3LYP/6-311++G(d,p) nosym opt freq SCRF=(PCM,Solvent=n,n-DiMethylFormamide)

Oxidized

0 1
O                  1.6794420000      2.3630090000      0.3794500000
C                  1.4005360000      1.1934110000      0.1990230000
C                 -0.0173530000      0.7036740000      0.2083690000
C                 -1.0476710000      1.6150250000      0.4303230000
C                 -2.3728010000      1.1814320000      0.4432910000
C                 -2.6745510000     -0.1640160000      0.2346500000
C                 -1.6506420000     -1.0824180000      0.0118560000
C                 -0.3240060000     -0.6528070000     -0.0018650000
C                  0.7688670000     -1.6250830000     -0.2382170000
O                  0.5918420000     -2.8253060000     -0.4302490000
C                  2.1464190000     -1.1205400000     -0.2421130000
O                  3.1267370000     -2.0281850000     -0.4599980000
C                  2.4604720000      0.1829300000     -0.0413050000
O                  3.7243630000      0.6406600000     -0.0458890000
H                 -0.7947210000      2.6558890000      0.5904540000
H                 -3.1702720000      1.8948780000      0.6164860000
H                 -3.7058100000     -0.4973180000      0.2454780000
H                 -1.8615660000     -2.1320190000     -0.1525500000
H                  2.6831860000     -2.8880570000     -0.5772850000
H                  4.3244470000     -0.1002140000     -0.2107760000


