%chk=183-an.chk
%nproc=8
%mem=30GB
#P UB3LYP/6-311++G(d,p) nosym opt freq

Reduced

-2 1
C          4.93796       -2.82481       -0.39720
C          5.66581       -1.91971       -1.17222
C          5.07841       -0.72787       -1.58897
C          3.60690       -2.54342       -0.02985
C          3.01874       -1.34601       -0.44933
C          3.76253       -0.44063       -1.23073
C          2.83263       -3.49715        0.78967
C          1.40902       -3.20478        1.18721
C          0.80111       -1.97416        0.75744
C          1.62706       -1.03098       -0.07655
C          0.64452       -4.11619        1.97997
C         -0.66344       -3.80457        2.32190
C         -0.56109       -1.68682        1.13372
C         -1.26378       -2.62360        1.91610
O          3.38743       -4.52853        1.13216
O          1.17476        0.02713       -0.47357
O          1.09755       -5.30457        2.44734
Br        -3.08273       -2.34996        2.47821
N         -1.25270       -0.48804        0.75391
H          5.41654       -3.74340       -0.08609
H          6.68631       -2.14116       -1.45076
H          5.63281       -0.01950       -2.18959
H          3.32256        0.49121       -1.56410
H         -1.22973       -4.50767        2.92430
H          1.96103       -5.70777        2.32867
H         -0.86779        0.27185        0.19156
H         -2.22375       -0.31286        1.03822






