%chk=333-an.chk
%nproc=8
%mem=30GB
#P UB3LYP/6-311++G(d,p) nosym opt freq

Reduced

-2 1
 C                 -1.26547200    2.44835700   -2.90414800
 C                 -2.14936900    2.27336900   -1.78487900
 C                  0.09350400    2.16309800   -2.53652300
 C                  0.46216400    1.49452700   -1.37285300
 C                 -0.53429100    0.90361500   -0.49801900
 C                 -1.80140900    1.60257100   -0.61670900
 C                 -0.28650000   -0.22053500    0.45373000
 C                 -1.31450400   -0.82433100    1.28256000
 C                  0.98174000   -0.90504100    0.62800100
 C                  1.28418300   -1.57115000    1.81199700
 C                  0.35226300   -1.76184700    2.88828700
 C                 -0.99252300   -1.49426900    2.45867400
 O                 -1.61562300    2.95313000   -4.02236300
 O                  0.65663900   -2.26511000    4.02050000
 C                  1.90024700    1.76018600   -0.87917900
 C                  1.94832200    3.15694200   -0.21509100
 C                  2.99996700    1.68396200   -1.95482600
 C                  1.86680800   -1.26567000   -0.58400500
 C                  1.42676700   -2.64548800   -1.12877900
 C                  3.38329500   -1.29831000   -0.31664000
 C                 -2.73101600   -1.08424900    0.72546600
 C                 -3.86637500   -1.08302800    1.76579100
 C                 -2.73230600   -2.44244700   -0.01491100
 C                 -2.63220200    1.95563200    0.63611800
 C                 -2.11281700    3.29225600    1.21629300
 C                 -4.15266700    2.06485000    0.41808500
 H                 -3.09901900    2.79650900   -1.85176700
 H                  0.85389700    2.60629400   -3.17369100
 H                  2.23545200   -2.08505700    1.91961000
 H                 -1.77530200   -1.94553900    3.06164000
 H                  2.14226700    1.05665000   -0.08779700
 H                  2.94592500    3.35410800    0.20251800
 H                  1.22125900    3.21897800    0.59730800
 H                  1.71235300    3.94253100   -0.93962500
 H                  2.97827000    0.73600300   -2.49750500
 H                  3.99122800    1.78960300   -1.49637600
 H                  2.89184100    2.48650000   -2.69048100
 H                  1.67361100   -0.56324400   -1.38965500
 H                  1.58236100   -3.42888400   -0.38053100
 H                  1.99683600   -2.90601600   -2.03189800
 H                  0.36600700   -2.63342100   -1.38785800
 H                  3.64807500   -2.10916600    0.36842900
 H                  3.74247900   -0.36550000    0.12436100
 H                  3.93291600   -1.46521200   -1.25151600
 H                 -2.96235900   -0.34093500   -0.03267900
 H                 -4.83989000   -1.16457700    1.26634400
 H                 -3.87046800   -0.17055900    2.36658400
 H                 -3.77922100   -1.92996500    2.45306600
 H                 -3.71662700   -2.64000900   -0.46254500
 H                 -2.49069000   -3.26078500    0.67080900
 H                 -1.98957900   -2.44152100   -0.81542000
 H                 -2.45072600    1.21435500    1.40970500
 H                 -2.65355500    3.55230900    2.13731200
 H                 -2.24040000    4.10632800    0.49566300
 H                 -1.05026300    3.21671500    1.45655000
 H                 -4.66510500    2.20832200    1.37759600
 H                 -4.56428700    1.16972100   -0.05402000
 H                 -4.40445400    2.91866100   -0.21819000


