%chk=267.chk
%nproc=8
%mem=30GB
#P UB3LYP/6-311++G(d,p) nosym opt freq SCRF=(PCM,Solvent=n,n-DiMethylFormamide)

Oxidized

0 1
C                 -1.2505580000      2.7491670000     -0.5131830000
C                 -2.5404530000      2.2363330000     -0.4279410000
C                 -2.7481870000      0.9372910000      0.0418460000
C                 -0.1600270000      1.9640910000     -0.1277400000
C                 -0.3695120000      0.6584840000      0.3441400000
C                 -1.6663990000      0.1506240000      0.4266010000
C                  1.2130200000      2.5322080000     -0.2266070000
C                  2.3564300000      1.6429460000      0.2115930000
C                  2.1319330000      0.3819390000      0.6556610000
C                  0.7897880000     -0.1917310000      0.7592860000
O                  1.4264590000      3.6543800000     -0.6369360000
O                  0.6235630000     -1.3326400000      1.1715700000
H                 -1.0669180000      3.7534820000     -0.8746310000
H                 -1.8036700000     -0.8591430000      0.7934810000
O                  3.5295700000      2.2631330000      0.1021890000
H                 -3.3851050000      2.8465300000     -0.7268150000
H                 -3.7547980000      0.5399680000      0.1071610000
H                  2.9319920000     -0.2786060000      0.9618770000
C                  4.7692630000      1.5958730000      0.4710070000
C                  5.7482060000      2.7112470000      0.8027120000
C                  5.2404270000      0.7044620000     -0.6733610000
H                  4.5778190000      0.9997610000      1.3691010000
H                  6.7076690000      2.2863680000      1.1081210000
H                  5.3671440000      3.3306500000      1.6165840000
H                  5.9108650000      3.3484170000     -0.0696620000
H                  6.1679720000      0.1993020000     -0.3915740000
H                  5.4325780000      1.3073660000     -1.5642320000
H                  4.5031370000     -0.0595880000     -0.9258980000


