%chk=192-opt-pro.chk
%nproc=8
%mem=30GB
#P UB3LYP/6-311++G(d,p) nosym opt freq

Oxidized

1 1
 C                  7.06869373   -4.41961368   -2.31479903
 O                  6.25910873   -3.46023068   -1.64295403
 C                  6.81281573   -2.65306468   -0.71711403
 C                  8.17072173   -2.72313868   -0.38130703
 C                  8.70738073   -1.87399568    0.58034097
 C                  7.90766573   -0.94233368    1.22494097
 C                  6.55331173   -0.85591268    0.90538197
 C                  5.75418373    0.18184232    1.64691197
 O                  6.31239573    0.87090932    2.48419397
 C                  4.31514973    0.31091032    1.31730197
 C                  3.50883973    1.27783832    1.93100497
 O                  4.06336373    2.12005032    2.84040297
 C                  2.12968573    1.37935832    1.61182197
 C                  1.31635173    2.49099332    2.24266397
 C                  0.01229373    2.84629232    1.48927997
 O                 -0.77999227    3.71485032    2.30532297
 C                 -0.74232427    1.55729132    1.16745397
 C                  0.06310373    0.49043032    0.41018197
 O                 -0.49005427   -0.79001968    0.77590197
 C                 -1.26831927   -1.41685768   -0.19575203
 C                 -1.61708027   -2.81532268    0.28701297
 C                 -2.57527827   -3.51707268   -0.69870803
 N                 -1.97230027   -3.94277768   -1.97210703
 C                 -3.78792327   -2.60979368   -0.97785703
 O                 -4.57720827   -2.62553668    0.21263897
 C                 -3.33017327   -1.19430268   -1.37843903
 C                 -4.46922327   -0.20531868   -1.58135103
 O                 -2.45467427   -0.63658268   -0.39441003
 C                  1.54623073    0.47887132    0.73379897
 C                  2.35881673   -0.46853368    0.06707897
 O                  1.76912873   -1.24092768   -0.85529003
 C                  3.73633773   -0.56104068    0.35460697
 C                  4.53775673   -1.56961268   -0.36927703
 O                  3.99078373   -2.29022668   -1.22141803
 C                  5.97688173   -1.70046568   -0.06445103
 C                  0.34386873    3.66038932    0.22879897
 O                  0.78115573    3.12690732   -0.76984403
 C                  0.13768473    5.16401132    0.24686797
 O                  0.59162273    5.75754832   -0.94209503
 H                  6.39612573   -4.93228068   -2.99964903
 H                  7.49602773   -5.14402968   -1.61398803
 H                  7.87018373   -3.93835568   -2.88440403
 H                  8.81337773   -3.44127668   -0.87019003
 H                  9.76172373   -1.94667168    0.82293497
 H                  8.30391773   -0.27233568    1.97560597
 H                  3.38679873    2.69124532    3.21679497
 H                  1.91174673    3.40747432    2.33369597
 H                  1.01705873    2.21279332    3.26244497
 H                 -1.20207127    3.19415032    2.99717797
 H                 -1.66385627    1.76911932    0.62337197
 H                 -1.03200627    1.10749632    2.12456397
 H                 -0.04583227    0.63152732   -0.66694803
 H                 -0.71579127   -1.43985168   -1.14786703
 H                 -0.69912827   -3.39682768    0.40611097
 H                 -2.09729827   -2.72077468    1.26410297
 H                 -2.97099727   -4.41724868   -0.22265703
 H                 -1.36197427   -3.23353168   -2.36466503
 H                 -1.40277627   -4.77008368   -1.83279703
 H                 -4.34778027   -3.04132768   -1.81691703
 H                 -5.30807327   -2.00743468    0.11935997
 H                 -2.78493227   -1.29652568   -2.33138703
 H                 -5.18083127   -0.58141168   -2.32149203
 H                 -4.07871727    0.75044932   -1.93569203
 H                 -4.99692727   -0.01423468   -0.64235203
 H                  2.49333073   -1.82495568   -1.22075603
 H                 -0.93109527    5.35666432    0.40501397
 H                  0.65561073    5.58937732    1.11577697
 H                  0.88142673    5.03583232   -1.52144403
 H                 -0.94651715   -4.22140127   -1.94116430





























