%chk=264-rad.chk
%nproc=8
%mem=30GB
#P UB3LYP/6-311++G(d,p) nosym  opt freq SCRF=(PCM,Solvent=n,n-DiMethylFormamide)

Radical

-1 2
C                  4.8943170000     -1.0910130000      0.0375460000
C                  3.5318330000     -1.0927410000     -0.6002200000
O                  3.2992660000     -0.9165980000     -1.7672800000
O                  2.5799470000     -1.3802440000      0.3338340000
C                  1.2408530000     -1.0946320000      0.0480130000
C                  0.4272220000     -2.1805160000     -0.1883720000
C                 -0.9421180000     -1.9862420000     -0.3909350000
C                 -1.4641930000     -0.7129140000     -0.3354560000
O                 -2.8235360000     -0.5917140000     -0.6419800000
C                 -3.7063290000     -0.3177050000      0.3614120000
C                 -5.0087600000      0.1643190000     -0.2168740000
O                 -3.4735120000     -0.4886640000      1.5291940000
C                 -0.6660340000      0.4286410000     -0.0823630000
C                 -1.2542880000      1.7853440000     -0.0080090000
O                 -2.4895740000      2.0094660000     -0.1288220000
C                 -0.3310710000      2.8585710000      0.2273560000
C                  1.0145190000      2.6717870000      0.3930600000
C                  1.6459650000      1.3842930000      0.3366780000
O                  2.8947630000      1.2698180000      0.4713710000
C                  0.7475790000      0.2313410000      0.1004210000
H                  5.6627510000     -1.1454660000     -0.7325280000
H                  4.9802750000     -0.1530550000      0.5903570000
H                  4.9951330000     -1.9181110000      0.7433070000
H                  0.8651670000     -3.1710140000     -0.2125910000
H                 -1.6053270000     -2.8187300000     -0.5923980000
H                 -5.2841310000     -0.4201510000     -1.0971760000
H                 -4.8501780000      1.1997840000     -0.5257600000
H                 -5.7904930000      0.1130590000      0.5399130000
H                 -0.7691390000      3.8509220000      0.2771940000
H                  1.6790930000      3.5121660000      0.5698470000


