%chk=143-an-PCM.chk
%nproc=8
%mem=30GB
#P UB3LYP/6-311++G(d,p) SCRF=(PCM,Solvent=n,n-DiMethylFormamide)

Reduced 

-2 1
C                  3.4688230000      2.1764310000      0.1853230000
C                  2.2338560000      1.5019810000      0.7413500000
O                  2.0880390000      1.2017500000      1.9044830000
O                  2.9681000000     -0.7279070000     -0.4308450000
C                  1.9417330000     -1.4939990000     -0.4189610000
C                  2.0582740000     -2.8997550000     -0.5754730000
C                  0.9545080000     -3.7680890000     -0.5541970000
C                 -0.3290670000     -3.2893270000     -0.3803990000
C                 -0.5513460000     -1.8957750000     -0.2252740000
C                 -1.9364250000     -1.4442700000     -0.0709110000
O                 -2.9125330000     -2.2545470000     -0.0550660000
C                 -2.1364140000     -0.0095710000      0.0526390000
C                 -3.4412790000      0.5090740000      0.1839310000
C                 -3.6934480000      1.8639710000      0.2923260000
C                 -2.5960800000      2.7700980000      0.2707420000
C                 -1.3075590000      2.3077580000      0.1485130000
C                 -1.0161520000      0.9076600000      0.0370150000
C                  0.2760540000      0.4052020000     -0.0968530000
O                  1.3119540000      1.3699140000     -0.2307320000
C                  0.5568470000     -0.9750950000     -0.2405110000
H                  4.0876300000      2.5549540000      1.0007100000
H                  3.1957290000      2.9849690000     -0.4988360000
H                  4.0001810000      1.4042310000     -0.3758110000
H                  3.0673610000     -3.2853760000     -0.7057320000
H                  1.1197740000     -4.8400340000     -0.6758620000
H                 -1.1953760000     -3.9389060000     -0.3621040000
H                 -4.2474510000     -0.2182650000      0.1940810000
H                 -4.7105130000      2.2354780000      0.3931400000
H                 -2.7764910000      3.8405530000      0.3561850000
H                 -0.4787320000      3.0068880000      0.1371270000





