%chk=130.chk
%nproc=8
%mem=30GB
#P UB3LYP/6-311++G(d,p) nosym opt freq SCRF=(PCM,Solvent=n,n-DiMethylFormamide)

Oxidized

0 1
C                 -3.3858650000      3.4924710000      0.0240260000
C                 -4.6175510000      2.8415910000      0.0755270000
C                 -4.6250040000      1.4381900000      0.1350740000
C                 -2.1856880000      2.7757100000      0.0280280000
C                 -2.2093850000      1.3722770000      0.0859070000
C                 -3.4422440000      0.7135950000      0.1396330000
C                 -0.8958880000      3.5253730000     -0.0275050000
C                  0.3641650000      2.7248190000     -0.0219130000
C                  0.3340620000      1.3215310000      0.0361140000
C                 -0.9524800000      0.5724810000      0.0933840000
C                  1.5909370000      3.3931050000     -0.0735210000
C                  2.7967120000      2.6935370000     -0.0697710000
C                  2.7504530000      1.2908880000     -0.0094860000
C                  1.5408160000      0.6141040000      0.0420250000
O                 -0.8725070000      4.7449780000     -0.0757360000
O                 -0.9758210000     -0.6479310000      0.1438710000
C                 -5.9119670000      3.6148630000      0.0560140000
H                 -5.5735810000      0.9122860000      0.1793440000
H                 -3.4476620000     -0.3685530000      0.1860540000
H                  1.5048100000     -0.4674320000      0.0890210000
C                  4.1192940000      3.4144360000     -0.1399570000
H                  3.6782790000      0.7274800000     -0.0021090000
H                 -3.3324630000      4.5741270000     -0.0193410000
H                  1.5791270000      4.4760590000     -0.1157030000
H                 -5.7381490000      4.6857330000      0.1719850000
H                 -6.5795680000      3.2880000000      0.8581250000
H                 -6.4426100000      3.4619190000     -0.8895020000
H                  3.9921650000      4.4921300000     -0.0267450000
H                  4.6106640000      3.2339260000     -1.1016630000
H                  4.8006090000      3.0666870000      0.6416310000


