%chk=094-rad.chk
%nproc=8
%mem=30GB
#P UB3LYP/6-311++G(d,p) nosym opt freq SCF=YQC

Radical

-1 2
 C                 16.98115800    1.17948100   -0.77050700
 C                 16.42415800    0.15539000    0.08912500
 C                 16.00717000    0.45692500    1.37249900
 C                 16.09862200    1.80709400    1.92191100
 C                 16.61898600    2.82405300    1.03657500
 C                 17.02820400    2.53903200   -0.24321100
 O                 17.42971800    0.95321600   -1.93797800
 O                 15.73997900    2.06799300    3.10978200
 C                 15.62507600    4.80530600    1.90308400
 C                 16.34522000   -1.24092200   -0.48168600
 H                 15.93432300    5.80745100    2.21190800
 H                 15.15789800    4.28050200    2.73874600
 H                 14.91454900    4.88921800    1.06938200
 C                 15.43405800   -0.59497000    2.30708500
 C                 13.93169300   -0.68017700    2.20798400
 C                 13.14895900   -1.74844400    1.99625900
 C                 11.64493100   -1.58075900    1.90030000
 C                 11.08376600   -1.75135100    0.46464200
 C                  9.58712900   -1.62841200    0.41391700
 C                  8.83746000   -0.69609900   -0.19202800
 C                  7.32594100   -0.74993500   -0.08867600
 C                  6.70853700    0.38427600    0.76750900
 C                  5.20659900    0.33257600    0.78880400
 C                  4.38384700    0.14943500    1.83148600
 C                  2.88303800    0.13325800    1.62192500
 C                 13.65370500   -3.16387300    1.84383400
 C                  9.39213700    0.44602200   -1.00849800
 C                  4.84436900   -0.05126100    3.25532300
 C                  2.14156100    1.34052600    2.24987400
 C                  0.65406100    1.26314200    2.04656100
 C                 -0.14388000    2.08037300    1.34444700
 C                 -1.63014100    1.79733800    1.25116200
 C                 -2.09800500    1.32953900   -0.15036000
 C                 -3.58657900    1.13002100   -0.21935400
 C                 -4.27622100   -0.00237600   -0.41844700
 C                 -5.79154200    0.02448500   -0.43996000
 C                 -6.45867400   -0.67299900    0.77246800
 C                 -7.95876700   -0.67641700    0.67049900
 C                 -8.85871800   -0.07343500    1.46041200
 C                -10.33853900   -0.19553800    1.15618500
 C                -10.99813300    1.12133100    0.67408700
 C                -12.47237200    0.96147400    0.42536700
 C                -13.14800500    1.07041000   -0.72752300
 C                  0.32727200    3.31497200    0.61484400
 C                 -3.64830900   -1.35586500   -0.64681700
 C                 -8.51256100    0.74170300    2.68267800
 C                -12.52116000    1.42078000   -2.05519700
 C                -14.64720300    0.84903400   -0.75429400
 C                -15.08503800   -0.44312800   -1.48838800
 C                -16.58056600   -0.58727100   -1.54734400
 C                -17.35533900   -1.54051500   -1.01030000
 C                -16.83720900   -2.70461800   -0.20057600
 C                -18.85828900   -1.49380000   -1.19764700
 C                -19.42241900   -2.63011300   -2.08664200
 C                -20.91987400   -2.56885100   -2.20832100
 C                -21.66683300   -2.38127900   -3.30554000
 C                -21.10776200   -2.18519900   -4.69428000
 C                -23.17841400   -2.35598800   -3.20415500
 H                 15.68194100   -0.28183700    3.32772000
 H                 15.90115800   -1.56511900    2.12626600
 H                 13.44181600    0.28491000    2.32590600
 H                 11.36545600   -0.58724700    2.26306700
 H                 11.14490000   -2.30800300    2.55719400
 H                 11.36590900   -2.74254200    0.08818600
 H                 11.57327600   -1.02410200   -0.18580800
 H                  9.05386900   -2.40197000    0.96896600
 H                  7.02098900   -1.71067500    0.33720200
 H                  6.88849700   -0.70037100   -1.09588800
 H                  7.01693100    1.35168700    0.35280400
 H                  7.13027600    0.33562800    1.77372200
 H                  4.74115400    0.44907900   -0.19077500
 H                  2.46517100   -0.78944800    2.04827300
 H                  2.66310100    0.11016300    0.55052900
 H                 14.73919500   -3.22856800    1.91125800
 H                 13.35710000   -3.59962500    0.88224500
 H                 13.22965400   -3.81009600    2.62421100
 H                 10.47727800    0.41795800   -1.09457900
 H                  9.12419000    1.41512000   -0.57347300
 H                  8.97283100    0.43081400   -2.02215200
 H                  5.92418500   -0.16939500    3.33738100
 H                  4.37482800   -0.94363800    3.68585500
 H                  4.55646500    0.79247600    3.89260100
 H                  2.55868400    2.26121800    1.83596100
 H                  2.34694300    1.36397900    3.32699700
 H                  0.17957100    0.40971900    2.53239200
 H                 -2.19125600    2.70262300    1.52073800
 H                 -1.90491900    1.03077000    1.98159300
 H                 -1.55533700    0.41913600   -0.41381600
 H                 -1.81323000    2.08523400   -0.89242100
 H                 -4.16751100    2.04162000   -0.07516700
 H                 -6.14995100   -0.45962900   -1.35879400
 H                 -6.13951300    1.06084700   -0.47765400
 H                 -6.11651500   -0.18633700    1.68843000
 H                 -6.10988400   -1.71150900    0.82409700
 H                 -8.34781700   -1.24207300   -0.17676800
 H                -10.86785700   -0.54031700    2.05503300
 H                -10.49316500   -0.96096400    0.39022900
 H                -10.47347200    1.46892700   -0.21854100
 H                -10.85436700    1.89415700    1.43895900
 H                -13.05198700    0.71161200    1.31461000
 H                  1.39506100    3.49649600    0.73092900
 H                 -0.20621900    4.20069900    0.98031800
 H                  0.11957000    3.24640600   -0.45841600
 H                 -2.55954600   -1.32318000   -0.66232600
 H                 -3.98578600   -1.77668700   -1.60152700
 H                 -3.94552500   -2.06806800    0.13040300
 H                 -7.44290000    0.76934000    2.88739200
 H                 -9.01398500    0.33285700    3.56800400
 H                 -8.85567400    1.77678100    2.58014800
 H                -11.44990200    1.60616900   -1.98549500
 H                -12.99134300    2.31891600   -2.47307400
 H                -12.67043000    0.62094900   -2.78834800
 H                -15.13244800    1.70609200   -1.24098200
 H                -15.03154700    0.81354300    0.26918200
 H                -14.61521400   -1.30122200   -1.00259000
 H                -14.69744500   -0.42080800   -2.51432400
 H                -17.08560500    0.20799400   -2.09646600
 H                -15.77269100   -2.62892100    0.01904900
 H                -17.00003100   -3.65583300   -0.71920300
 H                -17.37309700   -2.77286600    0.75319300
 H                -19.14336000   -0.53395700   -1.63798900
 H                -19.34843600   -1.54605900   -0.21576000
 H                -19.14791000   -3.59725100   -1.64774000
 H                -18.93614400   -2.58841900   -3.06393700
 H                -21.45092500   -2.68328900   -1.26282600
 H                -20.02428500   -2.07046700   -4.70428600
 H                -21.54460600   -1.29308200   -5.15761200
 H                -21.35590700   -3.03000500   -5.34641900
 H                -23.47066400   -2.33891600   -2.14944200
 C                -23.88251300   -3.55000100   -3.89643800
 H                -23.56090100   -1.42842800   -3.64985300
 C                -25.36985100   -3.53867300   -3.67555300
 C                -26.35126200   -3.41055300   -4.57858500
 C                -27.79969700   -3.41488900   -4.15274100
 C                -26.14267900   -3.25725700   -6.06442600
 H                -23.46515100   -4.47607200   -3.48031400
 H                -23.64333300   -3.55545500   -4.96158000
 H                -25.66893200   -3.63732600   -2.63188700
 H                -27.90468900   -3.52894300   -3.07194200
 H                -28.34904600   -4.23122900   -4.63710800
 H                -28.29896700   -2.48427500   -4.44831700
 H                -25.09243500   -3.23715700   -6.35392900
 H                -26.60880700   -2.33193500   -6.42298100
 H                -26.62589300   -4.07859100   -6.60697300
 O                 16.80937200    4.12803500    1.48690800
 H                 17.01086600   -1.93709900    0.04558600
 H                 16.64894900   -1.21619800   -1.52892100
 H                 15.33192800   -1.65086400   -0.41468000
 N                 17.50107000    3.52040300   -1.11210000
 H                 17.94662700    4.30262500   -0.65527400
 H                 18.01708000    3.10642100   -1.88005800






















































































