%chk=298-rad.chk
%nproc=8
%mem=30GB
#P UB3LYP/6-311++G(d,p) nosym opt freq Int=Acc2E=11  SCRF=(PCM,Solvent=n,n-DiMethylFormamide)

Radical

-1 2
 C                 -7.16321300    3.93849800    0.83996600
 C                 -8.14887200    3.25882400    0.14704500
 C                 -7.82139400    2.54141900   -1.01936300
 C                 -5.82378900    3.92513400    0.39387300
 C                 -5.48992700    3.20038800   -0.78527600
 C                 -6.51165900    2.51764200   -1.47129900
 C                 -4.79046100    4.63730000    1.11738200
 C                 -3.45245400    4.56666900    0.58532000
 C                 -3.09312900    3.87807700   -0.55690500
 C                 -4.10359000    3.15578600   -1.29300700
 O                 -4.98226000    5.31698900    2.18301000
 O                 -3.82620100    2.50600400   -2.34282100
 O                 -2.52743900    5.25882500    1.31221100
 C                 -1.66394200    3.85334700   -1.03767500
 C                 -0.84221200    2.67628300   -0.47380200
 C                  0.59898500    2.64738600   -0.99402600
 C                  1.42891400    1.48422900   -0.43877900
 C                  2.86804700    1.44972200   -0.96599300
 C                  3.69802200    0.28613300   -0.41177700
 C                  5.13379700    0.24778200   -0.94734500
 C                  5.96277600   -0.91600400   -0.39181100
 C                  7.39651000   -0.94970800   -0.93804400
 C                  8.20745300   -2.11500800   -0.37109900
 S                  9.91568300   -2.11782600   -1.05643500
 C                 10.61035900   -3.59034500   -0.19839600
 C                 12.06349900   -3.82452400   -0.61120900
 C                 12.67972300   -5.04316000    0.08888700
 C                 14.13688900   -5.29681600   -0.31431400
 C                 14.76179300   -6.50967500    0.38434800
 C                 16.21846300   -6.76611000   -0.01857400
 C                 16.84580800   -7.97660700    0.68222600
 C                 18.30196800   -8.23408500    0.27879600
 C                 18.93106400   -9.44325900    0.98036000
 C                 20.38566000   -9.69251000    0.57021100
 H                 -7.40200700    4.49506200    1.73860700
 H                 -9.17391500    3.27792300    0.50145400
 H                 -8.59420300    2.00845300   -1.56258200
 H                 -6.24589200    1.96932100   -2.36721800
 H                 -3.05773100    5.64407000    2.04075900
 H                 -1.17003300    4.79093000   -0.76461400
 H                 -1.66586600    3.78689200   -2.12934200
 H                 -1.34289800    1.73625000   -0.73191300
 H                 -0.83408600    2.73481000    0.62106600
 H                  1.09306400    3.59549000   -0.74375600
 H                  0.58542000    2.59027900   -2.09038200
 H                  0.93200000    0.53671600   -0.68471800
 H                  1.44696100    1.54417300    0.65725700
 H                  3.36553200    2.39713900   -0.72082000
 H                  2.84913200    1.38935700   -2.06198600
 H                  3.19778500   -0.66093300   -0.65237300
 H                  3.72246200    0.34929500    0.68388100
 H                  5.63473200    1.19454100   -0.70777300
 H                  5.10916200    0.18269900   -2.04271300
 H                  5.46240700   -1.86310500   -0.62938300
 H                  5.99345500   -0.84898000    0.70289400
 H                  7.89874100   -0.00527600   -0.69940400
 H                  7.36702300   -1.02314100   -2.03116300
 H                  7.73662100   -3.06892900   -0.62252300
 H                  8.27584500   -2.04176200    0.71740300
 H                  9.99441900   -4.45676400   -0.45301100
 H                 10.53937200   -3.42315300    0.87951600
 H                 12.65733500   -2.93321100   -0.37861200
 H                 12.11656900   -3.96361100   -1.69701400
 H                 12.08054300   -5.93355500   -0.13913900
 H                 12.62365600   -4.90317800    1.17565900
 H                 14.73406200   -4.40346900   -0.09076200
 H                 14.19136100   -5.43776100   -1.40143100
 H                 14.16311500   -7.40262200    0.16237000
 H                 14.70743800   -6.36762800    1.47151000
 H                 16.81639600   -5.87200000    0.20097500
 H                 16.27228800   -6.91017000   -1.10554500
 H                 16.24733700   -8.87065300    0.46362000
 H                 16.79270100   -7.83189800    1.76920200
 H                 18.90125100   -7.34012500    0.49624100
 H                 18.35594700   -8.38052400   -0.80804700
 H                 18.33288100  -10.33677600    0.76344600
 H                 18.87836000   -9.29703500    2.06621500
 H                 20.46604400   -9.87664800   -0.50603700
 H                 20.80419400  -10.56029500    1.08810800
 H                 21.01557300   -8.82861300    0.80594000










