%chk=294.chk
%nproc=8
%mem=30GB
#P UB3LYP/6-311++G(d,p) nosym opt freq

Oxidized

0 1
 C   -6.3153828    0.5267842   -3.2539897
  C   -7.4717600   -0.2383711   -3.4199557
  C   -7.5832404   -1.4812102   -2.7956104
  C   -5.2569180    0.0501640   -2.4586277
  C   -5.3673937   -1.2017206   -1.8305328
  C   -6.5381781   -1.9636854   -2.0038724
  C   -4.0236596    0.8464303   -2.2724715
  C   -2.9024555    0.3255248   -1.4374776
  C   -2.9964890   -0.8928317   -0.8253018
  C   -4.2458216   -1.7004090   -0.9974796
  O   -3.9181026    1.9382495   -2.8119272
  O   -4.3415664   -2.7896418   -0.4492817
  O   -1.7944852    1.0901544   -1.3072619
  C   -1.9051016   -1.5392402    0.0409778
  H   -6.2486022    1.4883459   -3.7474113
  H   -8.2822413    0.1330849   -4.0337598
  H   -8.4805546   -2.0722794   -2.9258723
  H   -6.6452663   -2.9310709   -1.5295880
  H   -1.6959272    1.9548366   -1.7289651
  C   -0.5847259   -0.7766380    0.2283801
  C    0.4271081   -1.5906965    1.0516672
  C    1.7808641   -0.9267518    1.2348977
  C    2.0834515    0.3638918    0.7579698
  C    2.7835191   -1.6452880    1.9014954
  C    4.0576202   -1.0997818    2.0796515
  C    4.3678229    0.1888887    1.6057441
  C    3.3546235    0.9131961    0.9421257
  C    5.7849513    0.7306378    1.8087109
  C    6.0290977    2.1142537    1.1528079
  C    6.1318100    0.8199580    3.3153441
  C    7.5815663    1.2873738    3.5148469
  C    7.4784756    2.5730963    1.3593023
  C    7.8040013    2.6519380    2.8544368
  H   -1.6601718   -2.5184697   -0.4260855
  H   -2.3355396   -1.7323931    1.0480546
  H   -0.7892819    0.1825305    0.7522454
  H   -0.1349594   -0.5964025   -0.7724302
  H    0.5951119   -2.5565964    0.5262114
  H   -0.0021764   -1.8066290    2.0544943
  H    1.3499971    0.9627376    0.2374501
  H    2.5813608   -2.6418559    2.2753696
  H    4.8073021   -1.6952698    2.5842945
  H    3.5261855    1.9050906    0.5511930
  H    6.4791164    0.0063019    1.3256292
  H    5.3497126    2.8725066    1.6027784
  H    5.8316206    2.0571323    0.0602257
  H    6.0220245   -0.1699476    3.8052556
  H    5.4393084    1.5321868    3.8165177
  H    8.2748861    0.5418807    3.0656752
  H    7.8054633    1.3586264    4.6007484
  H    7.6234857    3.5717071    0.8937224
  H    8.1688307    1.8548492    0.8644723
  H    7.1496883    3.4099374    3.3390085
  H    8.8611469    2.9659830    2.9902965







