%chk=172.chk
%nproc=8
%mem=30GB
#P UB3LYP/6-311++G(d,p) nosym opt freq

Oxidized

0 1
C         -1.39520        2.02506       -4.71233
C         -1.51527        0.66103       -4.98285
C         -1.42785       -0.26465       -3.94439
C         -1.19379        2.46569       -3.39703
C         -1.10632        1.54421       -2.36332
C         -1.22009        0.17393       -2.63569
C         -1.04716        3.90261       -3.11706
C         -0.86589        2.00299       -0.98622
C         -1.06543        4.38801       -1.70887
C         -0.97426        3.45220       -0.65916
C         -1.14263        5.77772       -1.43882
C         -1.17206        6.17598       -0.09821
C         -1.07980        5.24836        0.94263
C         -0.95507        3.87761        0.69298
O         -0.89583        4.67534       -4.05997
O         -0.56389        1.17353       -0.13193
H         -1.45778        2.74211       -5.52912
H         -1.67272        0.32160       -6.00421
H         -1.51701       -1.32844       -4.15312
H         -1.14595       -0.55499       -1.83044
H         -1.15032        5.62287        1.96029
H         -1.30895        7.22061        0.16789
N         -1.34660        6.71776       -2.46700
N         -0.97218        2.95533        1.75744
C         -0.77889        8.04759       -2.32540
C         -0.27881        3.29843        2.98761
H         -1.11279        6.29940       -3.37997
H         -0.69965        2.02054        1.41793
H          0.28696        8.00290       -2.07812
H         -1.30925        8.63328       -1.56850
H         -0.88000        8.58239       -3.27533
H         -0.80491        4.08110        3.54235
H          0.75122        3.61389        2.79084
H         -0.24073        2.41579        3.63423






