%chk=020-rad-PCM.chk
%nproc=8
%mem=30GB
#P UB3LYP/6-311++G(d,p) SCRF=(PCM,Solvent=n,n-DiMethylFormamide)

Radical PCM in DMF 

-1 2
C                 -2.0285940000      0.3608500000      1.5330510000
C                 -2.9129560000      1.1967960000      0.7109440000
C                 -2.5197000000      1.5056140000     -0.5661040000
C                 -1.2820710000      1.0750370000     -1.1996730000
C                 -0.3978270000      0.2389280000     -0.3776490000
C                 -0.7910690000     -0.0698940000      0.8994070000
O                 -0.9775530000      1.3910610000     -2.3745930000
O                 -2.3333050000      0.0444640000      2.7078250000
Br                 0.3154870000     -1.1722680000      2.0634190000
Br                -3.6263780000      2.6077380000     -1.7302340000
C                  0.9094660000     -0.2360100000     -0.9985960000
C                  1.8499050000      0.9348940000     -1.3459840000
C                  0.6782680000     -1.1556250000     -2.2138790000
C                 -4.2203940000      1.6715300000      1.3317750000
C                 -3.9894940000      2.5915250000      2.5468270000
C                 -5.1605350000      0.5004450000      1.6793610000
H                  1.4142650000     -0.8340690000     -0.2393540000
H                  2.0517180000      1.5446980000     -0.4600320000
H                  1.4091820000      1.5716940000     -2.1135780000
H                  2.8081480000      0.5481980000     -1.7129710000
H                  0.0580830000     -2.0136620000     -1.9370280000
H                  1.6380870000     -1.5391010000     -2.5801080000
H                  0.1833520000     -0.6145730000     -3.0208840000
H                 -4.7253260000      2.2692780000      0.5723740000
H                 -4.9494280000      2.9749030000      2.9128640000
H                 -3.3694830000      3.4496130000      2.2697570000
H                 -3.4945370000      2.0508120000      3.3540310000
H                 -6.1189270000      0.8869570000      2.0461560000
H                 -4.7197200000     -0.1360420000      2.4471590000
H                 -5.3620800000     -0.1096040000      0.7935180000





