%chk=059-an.chk
%nproc=8
%mem=30GB
#P UB3LYP/6-311++G(d,p) nosym opt freq

Reduced

-2 1
C         -0.52252        1.10038       -0.26580
C         -1.51945        0.14678       -0.83676
C         -1.30196       -1.17524       -0.74520
C         -0.08832       -1.68911       -0.08624
C          0.90253       -0.74976        0.48111
C          0.72163        0.59109        0.41016
O         -0.72852        2.30166       -0.35365
O          0.09840       -2.89303       -0.00913
C          1.72076        1.56662        0.98289
C          3.00118        1.17987        1.68160
O          1.49985        2.76437        0.88673
H          3.18301        0.09610        1.75864
H          2.98880        1.58915        2.71366
H          3.86028        1.62318        1.13549
H          1.76733       -1.19441        0.94901
C         -2.77232        0.63658       -1.51788
H         -2.02016       -1.88004       -1.15691
H         -2.83318        1.74423       -1.52761
H         -3.66517        0.24506       -0.98587
H         -2.79102        0.27918       -2.56927





