%chk=049.chk
%nproc=8
%mem=30GB
#P UB3LYP/6-311++G(d,p) nosym opt freq SCRF=(PCM,Solvent=n,n-DiMethylFormamide)

Oxidized

0 1
C                  3.0344280000     -1.1128610000     -0.1378740000
C                  1.7419880000     -0.3699680000     -0.0013900000
C                  1.6560460000      0.9183800000      0.3652040000
C                  0.3660120000      1.6211030000      0.4907030000
O                  0.3440040000      2.8016990000      0.8276260000
C                 -0.8949670000      0.8766280000      0.1985210000
C                 -0.8375790000     -0.4242940000     -0.1705360000
C                 -2.0718380000     -1.2248760000     -0.4776400000
C                  0.4785030000     -1.1207590000     -0.2940800000
O                  0.5382900000     -2.2961490000     -0.6278140000
C                 -2.1920420000      1.6205590000      0.3344020000
H                  3.1524840000     -1.4979440000     -1.1565620000
H                  3.8797700000     -0.4658420000      0.0943630000
H                  3.0540690000     -1.9787550000      0.5276940000
H                  2.5373920000      1.5107050000      0.5874370000
H                 -2.7829160000     -1.1818490000      0.3596400000
H                 -1.8204160000     -2.2678430000     -0.6762300000
H                 -2.5885840000     -0.8160840000     -1.3576320000
H                 -2.8201870000      1.1672730000      1.1110860000
H                 -2.0137600000      2.6636140000      0.5970600000
H                 -2.7626950000      1.5812680000     -0.5999770000





