%chk=052-rad.chk
%nproc=8
%mem=30GB
#P UB3LYP/6-311++G(d,p) nosym  opt freq

Radical

-1 2
C                  1.8363060000      2.7988680000      1.3929270000
C                  0.4013070000      2.7400430000      1.1929420000
C                 -0.1957320000      1.6429050000      0.6148680000
C                  0.5915420000      0.4977210000      0.1756090000
C                  2.0416140000      0.5601510000      0.3452110000
C                  2.6230090000      1.6700470000      0.9295800000
O                  2.3770690000      3.8058550000      1.9656380000
O                  0.0442040000     -0.5139040000     -0.3455730000
C                 -0.4163330000      3.9209530000      1.6571500000
C                 -1.6878910000      1.5756000000      0.4113640000
C                  2.8268810000     -0.6327540000     -0.1317570000
S                  4.3944880000      1.6487640000      1.2450920000
C                  4.9702060000      3.3250770000      0.7274650000
C                  5.3079190000      4.2723530000      1.8995020000
C                  4.9861090000      5.7265230000      1.5757200000
O                  5.8314900000      6.5846240000      1.4309100000
O                  3.6848410000      6.0047500000      1.4538410000
H                  0.2245580000      4.6437490000      2.1600630000
H                 -1.2085250000      3.6122790000      2.3488900000
H                 -0.9098060000      4.4227820000      0.8155870000
H                 -2.0497320000      2.4141940000     -0.1955820000
H                 -2.2273640000      1.6222460000      1.3656040000
H                 -1.9455310000      0.6418100000     -0.0877550000
H                  2.2234360000     -1.2004400000     -0.8401730000
H                  3.0759180000     -1.3072700000      0.6975700000
H                  3.7713380000     -0.3273900000     -0.5876710000
H                  4.1941690000      3.7352910000      0.0852070000
H                  5.8546120000      3.1597130000      0.1085280000
H                  6.3662700000      4.2113330000      2.1553320000
H                  4.7122620000      3.9747490000      2.7637740000
H                  3.1270150000      5.1905650000      1.6279600000


