%chk=093.chk
%nproc=8
%mem=30GB
#P UB3LYP/6-311++G(d,p) nosym opt freq SCF=YQC Int=Acc2E=11

Oxidized

0 1
C                 17.22765800    1.46268600    0.11052100
 C                 16.54445500    0.27249400    0.71591100
 C                 16.07203500    0.33179800    1.97766400
 C                 16.15154500    1.60362000    2.75310600
 C                 16.79314700    2.81393200    2.12532000
 C                 17.28803600    2.74023300    0.86058100
 O                 17.75240200    1.37528300   -0.99183700
 O                 15.69114800    1.67961600    3.87657100
 C                 17.51466200    4.31664200   -0.93551600
 C                 17.11862900    5.18465700    2.56425000
 C                 16.46973400   -0.95933100   -0.14337400
 H                 18.17512300    5.15307000   -1.16046600
 H                 16.48738900    4.68194200   -0.82481800
 H                 17.56932100    3.57409800   -1.72974800
 H                 16.91607700    5.79366500    3.44374000
 H                 16.47333900    5.50048900    1.74126400
 H                 18.16265900    5.27327500    2.26970500
 C                 15.40632500   -0.83081700    2.68334000
 C                 13.90711500   -0.83142800    2.47962100
 C                 13.12611500   -1.83375400    2.05382600
 C                 11.62981900   -1.62312700    1.93208900
 C                 11.11700500   -1.56284700    0.47086000
 C                  9.62110900   -1.42662900    0.39878900
 C                  8.89147400   -0.40753600   -0.07708700
 C                  7.37789600   -0.47364000   -0.03800600
 C                  6.72306600    0.52057400    0.95330900
 C                  5.22123300    0.45499900    0.91593500
 C                  4.37002200    0.11301700    1.89359800
 C                  2.87655800    0.11776000    1.63725600
 C                 13.61605900   -3.21601700    1.69831500
 C                  9.47027500    0.84706300   -0.68467300
 C                  4.78859700   -0.29333200    3.28594700
 C                  2.10528600    1.22433900    2.40026100
 C                  0.62286500    1.15553700    2.15768400
 C                 -0.17036400    2.04117000    1.53812100
 C                 -1.65217000    1.75999000    1.38859200
 C                 -2.09821000    1.45931600   -0.06486600
 C                 -3.58354700    1.25096900   -0.17272300
 C                 -4.25532000    0.14044500   -0.50872700
 C                 -5.77064400    0.14837600   -0.53759100
 C                 -6.43178600   -0.68489000    0.58959200
 C                 -7.93172400   -0.69685100    0.48319300
 C                 -8.83904700   -0.18002100    1.32411200
 C                -10.31737300   -0.29093200    1.00880000
 C                -10.98900400    1.05411600    0.63220100
 C                -12.46533600    0.90454800    0.38847000
 C                -13.15043400    1.06841000   -0.75223100
 C                  0.30128400    3.35437300    0.96257800
 C                 -3.60670500   -1.16874900   -0.88754200
 C                 -8.50299300    0.52266000    2.61695900
 C                -12.53472600    1.48307400   -2.06644500
 C                -14.64943100    0.84581100   -0.77761800
 C                -15.08969100   -0.42035600   -1.55465300
 C                -16.58550200   -0.56413300   -1.61097700
 C                -17.35711700   -1.52741400   -1.08744700
 C                -16.83400900   -2.70489800   -0.30055600
 C                -18.86098300   -1.47864700   -1.26619300
 C                -19.43017600   -2.60317200   -2.16673300
 C                -20.92846100   -2.54083300   -2.27789000
 C                -21.68280400   -2.34465000   -3.36852100
 C                -21.13326000   -2.13739400   -4.75941700
 C                -23.19366300   -2.32137600   -3.25680500
 H                 15.61086900   -0.73269800    3.75383200
 H                 15.85478500   -1.76523000    2.34699100
 H                 13.42495400    0.10768300    2.74216000
 H                 11.34692100   -0.69563300    2.43746100
 H                 11.10579100   -2.43572600    2.45258000
 H                 11.40951300   -2.48269300   -0.05023600
 H                 11.62205500   -0.74227300   -0.04334500
 H                  9.07413200   -2.27853500    0.80352300
 H                  7.06177100   -1.48662600    0.22698400
 H                  6.98021100   -0.27476800   -1.04252500
 H                  7.03356200    1.54060100    0.69544900
 H                  7.11089200    0.32664800    1.95586300
 H                  4.78590600    0.71340000   -0.04984000
 H                  2.45661400   -0.85677100    1.92130800
 H                  2.68814200    0.23887000    0.56663200
 H                 14.69730700   -3.32510500    1.77954500
 H                 13.32903100   -3.49104900    0.67805600
 H                 13.15772300   -3.95932400    2.36110800
 H                 10.55844900    0.83331900   -0.73745800
 H                  9.17870300    1.73497600   -0.11374400
 H                  9.08605600    0.98965800   -1.70157600
 H                  5.86780800   -0.39952800    3.39195700
 H                  4.32830400   -1.25043100    3.55709600
 H                  4.45429000    0.43622900    4.03164300
 H                  2.51609700    2.19618500    2.11753200
 H                  2.28869300    1.11121000    3.47562000
 H                  0.14917000    0.24867100    2.53473500
 H                 -2.22437800    2.62255200    1.75623800
 H                 -1.93007800    0.91023900    2.01869000
 H                 -1.54135100    0.59338800   -0.42963200
 H                 -1.81637400    2.30229200   -0.70740800
 H                 -4.17800300    2.13198200    0.07101900
 H                 -6.11759300   -0.23899600   -1.50515900
 H                 -6.13379800    1.17759000   -0.46557800
 H                 -6.09841200   -0.29541400    1.55403900
 H                 -6.06916300   -1.71827500    0.53047500
 H                 -8.31308900   -1.18646200   -0.41336500
 H                -10.84354200   -0.71113800    1.87664700
 H                -10.46513700   -0.99416900    0.18418600
 H                -10.47610900    1.46957500   -0.23805900
 H                -10.84088500    1.76965400    1.45004400
 H                -13.03714500    0.61039600    1.26907100
 H                  1.36524600    3.53074200    1.11728200
 H                 -0.24747200    4.18804300    1.41654400
 H                  0.11125700    3.40628100   -0.11473800
 H                 -2.51818700   -1.12248900   -0.88454900
 H                 -3.92760200   -1.47672000   -1.88974400
 H                 -3.90490300   -1.97133500   -0.20464200
 H                 -7.43328200    0.55134900    2.82171200
 H                 -8.99374900    0.02301500    3.46058300
 H                 -8.86610100    1.55587200    2.61279600
 H                -11.46109900    1.65592700   -1.99935500
 H                -13.00196900    2.40535900   -2.43159000
 H                -12.69919000    0.72382600   -2.83840800
 H                -15.13901900    1.71890300   -1.22990600
 H                -15.02737100    0.77271200    0.24619500
 H                -14.61673900   -1.29428500   -1.10116300
 H                -14.70713100   -0.36198800   -2.58102400
 H                -17.09328200    0.24071100   -2.14320000
 H                -15.76853100   -2.63201800   -0.08444000
 H                -16.99871300   -3.64705200   -0.83478600
 H                -17.36548800   -2.79011500    0.65427400
 H                -19.14865700   -0.51305200   -1.69196600
 H                -19.34544800   -1.54403700   -0.28229900
 H                -19.15257900   -3.57599600   -1.74251400
 H                -18.95026600   -2.54822700   -3.14654300
 H                -21.45306500   -2.66361800   -1.32987600
 H                -20.04989000   -2.02202400   -4.77612400
 H                -21.57388300   -1.24207300   -5.21280100
 H                -21.38565100   -2.97728200   -5.41621900
 H                -23.47883400   -2.31171300   -2.20008400
 C                -23.90137100   -3.51135200   -3.95237100
 H                -23.57988100   -1.39117100   -3.69358200
 C                -25.38702100   -3.50358200   -3.71999300
 C                -26.37543200   -3.37125200   -4.61475100
 C                -27.82053900   -3.38069300   -4.17794400
 C                -26.17841800   -3.20830300   -6.10113400
 H                -23.47957100   -4.43984500   -3.54619200
 H                -23.67044300   -3.50870700   -5.01934700
 H                -25.67794300   -3.60955800   -2.67475900
 H                -27.91720400   -3.50172300   -3.09715000
 H                -28.37215400   -4.19485200   -4.66329800
 H                -28.32351100   -2.44911900   -4.46391900
 H                -25.13047400   -3.18477800   -6.39868200
 H                -26.64879800   -2.28156000   -6.45025500
 H                -26.66461200   -4.02695200   -6.64500100
 O                 17.98664000    3.77638300    0.31160400
 O                 16.80168200    3.84603600    2.97329500
 H                 17.19858200   -1.70793500    0.18699900
 H                 16.70125200   -0.71406600   -1.17845000
 H                 15.47929500   -1.41446700   -0.08904000




























































