%chk=225-an.chk
%nproc=8
%mem=30GB
#P UB3LYP/6-311++G(d,p) nosym opt freq SCF=YQC

Reduced

-4 1
 O                  5.89618800   -1.62536100    1.25653400
 S                  5.45846700   -0.88652300    0.02056500
 O                  6.23533700    0.39175300   -0.14537100
 O                  5.50531600   -1.74530000   -1.20344700
 C                  3.72034000   -0.40585300    0.29271800
 C                  3.43008500    0.42602200    1.41540400
 C                  2.13133900    0.81550100    1.65390500
 C                  1.04133600    0.42636400    0.82692400
 C                 -0.29461100    0.88542900    1.15543100
 O                 -0.53180400    1.63480300    2.17826000
 C                 -1.33556300    0.42764900    0.25264900
 C                 -2.69365600    0.80190500    0.48749100
 C                 -3.72114600    0.40599200   -0.34370200
 C                 -3.43085500   -0.39660100   -1.48763500
 C                 -2.13098400   -0.78446100   -1.72900400
 C                 -1.04224000   -0.41689300   -0.88942300
 C                  0.29363700   -0.88947100   -1.20912100
 O                  0.53036700   -1.65192300   -2.22001800
 C                  1.33630500   -0.42484800   -0.31109400
 C                  2.69326000   -0.81121900   -0.53520600
 S                 -5.45932900    0.86146500   -0.02499900
 O                 -5.91614300    1.67347200   -1.20510100
 O                 -6.22490400   -0.42895200    0.07715600
 O                 -5.49117200    1.64562500    1.24969600
 H                  4.23735000    0.74017000    2.06963900
 H                  1.88654600    1.44865800    2.50244500
 H                 -2.89952000    1.41273900    1.35810300
 H                 -4.23130600   -0.69018000   -2.16227500
 H                 -1.88893500   -1.39564800   -2.59461700
 H                  2.89629200   -1.44431500   -1.39061400







