%chk=293-an.chk
%nproc=8
%mem=30GB
#P UB3LYP/6-311++G(d,p) nosym opt freq SCF=YQC

Reduced

-2 1
C                 -0.2821130000      0.7926660000     -1.1225990000
C                 -0.9313130000      1.2694310000      0.0001330000
C                 -0.3320270000      1.1374650000      1.2725950000
C                  0.9835520000      0.1684500000     -1.0248690000
C                  1.5923510000      0.0346040000      0.2635310000
C                  0.9077860000      0.5291600000      1.3881990000
C                  1.6562600000     -0.3281910000     -2.1990550000
C                  2.9400420000     -0.9450560000     -1.9891580000
C                  3.5563230000     -1.0983660000     -0.7598530000
C                  2.9101110000     -0.6050600000      0.4343750000
O                  1.2048470000     -0.2646030000     -3.3994360000
O                  3.4398370000     -0.7161740000      1.5774970000
O                  3.5203080000     -1.3914780000     -3.1455570000
H                 -0.7219870000      0.8825640000     -2.1098650000
H                 -1.9032790000      1.7468220000     -0.0948610000
H                 -0.8416600000      1.5124290000      2.1560080000
H                  1.3934900000      0.4146620000      2.3512450000
H                  2.8380230000     -1.1420270000     -3.8099700000
C                  4.9015420000     -1.7676300000     -0.6310250000
C                  6.0817610000     -0.7756170000     -0.6092980000
H                  5.0419140000     -2.4722400000     -1.4573580000
H                  4.9121310000     -2.3310030000      0.3081640000
H                  5.9161510000     -0.0627830000      0.2056740000
H                  6.0826200000     -0.2001750000     -1.5432180000
C                  7.4423580000     -1.4582410000     -0.4253790000
C                  8.6186660000     -0.4614650000     -0.3814260000
C                  9.9718770000     -1.1025230000     -0.1601680000
C                 10.3758970000     -1.5130280000      1.1171120000
C                 10.8616130000     -1.3241480000     -1.2169330000
C                 12.1033860000     -1.9301790000     -1.0231870000
C                 12.4837960000     -2.3154830000      0.2613020000
C                 11.6151190000     -2.1094750000      1.3325090000
O                 13.6588050000     -2.9910750000      0.5297720000
C                 14.8400030000     -2.6641520000     -0.1222840000
C                 15.2223690000     -1.3433160000     -0.3588730000
C                 15.6902250000     -3.7194950000     -0.4465660000
C                 16.9341940000     -3.4501080000     -1.0138910000
C                 16.4621060000     -1.0893390000     -0.9450900000
C                 17.3200080000     -2.1366530000     -1.2733600000
H                  7.6131170000     -2.1766480000     -1.2374210000
H                  7.4337770000     -2.0427120000      0.5029420000
H                  8.4277470000      0.2658480000      0.4167770000
H                  8.6371870000      0.1078870000     -1.3173350000
H                  9.7108680000     -1.3564270000      1.9609030000
H                 10.5782270000     -1.0210280000     -2.2205250000
H                 12.7736950000     -2.0933040000     -1.8583750000
H                 11.9246800000     -2.4213740000      2.3235180000
H                 14.5613580000     -0.5283100000     -0.0857930000
H                 15.3718010000     -4.7368220000     -0.2440790000
H                 17.6021400000     -4.2717960000     -1.2626180000
H                 16.7628740000     -0.0626060000     -1.1397550000
H                 18.2861280000     -1.9309440000     -1.7262980000





