%chk=079.chk
%nproc=8
%mem=30GB
#P UB3LYP/6-311++G(d,p) nosym opt freq

Oxidized

0 1
C                  1.1241880000      1.4028480000     -2.7365170000
C                 -0.2524980000      1.6904950000     -3.2062890000
C                 -1.2200420000      0.7733210000     -3.1051770000
C                 -0.9552150000     -0.5637810000     -2.5218240000
C                  0.4253680000     -0.8693250000     -2.0183970000
O                  2.0077250000      2.2381940000     -2.8400720000
O                 -1.8435030000     -1.3972500000     -2.4555060000
H                 -0.4131300000      2.6771290000     -3.6266950000
C                  1.3922690000      0.0660360000     -2.1341400000
C                  2.7908200000     -0.1311270000     -1.5718090000
C                  3.8973390000     -0.4992540000     -2.4959640000
C                  5.2023830000     -0.5692080000     -1.9867450000
C                  3.6692580000     -0.7867580000     -3.8472530000
C                  6.2581950000     -0.9189960000     -2.8176720000
C                  6.0225400000     -1.2066500000     -4.1643610000
C                  4.7285530000     -1.1417870000     -4.6778880000
O                  2.9572260000      0.0140840000     -0.3766470000
C                  0.6153030000     -2.2272880000     -1.4124680000
H                  5.3636890000     -0.3417530000     -0.9401590000
H                  2.6649590000     -0.7375810000     -4.2513730000
H                  7.2660070000     -0.9673140000     -2.4214850000
H                  6.8482420000     -1.4795660000     -4.8119970000
H                  4.5459560000     -1.3646690000     -5.7227050000
H                 -2.2366350000      0.9486070000     -3.4393500000
H                 -0.0004780000     -2.3238690000     -0.5134110000
H                  1.6530480000     -2.4137270000     -1.1416040000
H                  0.2728430000     -3.0016110000     -2.1033690000


