%chk=066-rad.chk
%nproc=8
%mem=30GB
#P UB3LYP/6-311++G(d,p) nosym  opt freq SCRF=(PCM,Solvent=n,n-DiMethylFormamide)

Radical

-1 2
C                  1.2829130000     -0.5731710000      1.8459090000
C                  0.8736310000     -1.6009250000      0.9007440000
C                 -0.2502770000     -1.5078610000      0.1362730000
C                 -1.1426900000     -0.3627240000      0.1980480000
C                 -0.7508030000      0.6769060000      1.1234110000
C                  0.3927510000      0.5784560000      1.8838950000
O                  2.3025630000     -0.7002120000      2.5660450000
O                 -2.1867790000     -0.2809100000     -0.5046610000
S                  0.7970420000      1.9684550000      2.9504110000
C                  0.7712730000      1.3190180000      4.6473000000
C                 -0.3845890000      1.4861430000      5.4068940000
C                  1.9045210000      0.7025670000      5.1732820000
C                  1.8699360000      0.2436650000      6.4889430000
C                 -0.4078110000      1.0208690000      6.7206430000
C                  0.7187890000      0.4008680000      7.2614860000
O                  2.1589250000      2.4553900000      2.6870550000
O                 -0.3243120000      2.9279570000      2.8753120000
H                  1.5244090000     -2.4687460000      0.8453920000
H                 -0.5256040000     -2.2994450000     -0.5548940000
H                 -1.3842480000      1.5522890000      1.1993550000
H                 -1.2397160000      1.9852920000      4.9684630000
H                  2.7735170000      0.5689650000      4.5442310000
H                  2.7441430000     -0.2422930000      6.9087640000
H                 -1.3024360000      1.1474810000      7.3210490000
H                  0.6987740000      0.0385070000      8.2842680000


