%chk=202.chk
%nproc=8
%mem=30GB
#P UB3LYP/6-311++G(d,p) nosym opt freq

Oxidized

0 1
O     4.9728813373    0.6844954557   -0.7933234358
C     3.7106580753    0.1377604941   -0.5823728237
C     3.5009101447   -1.2226190766   -0.4858393407
C     2.2381413297   -1.7471336279   -0.2758873222
C     1.1326599781   -0.9195413525   -0.1543986574
C    -0.2083405306   -1.4449662518    0.0670391444
O    -0.4033454900   -2.6841612320    0.1555484358
C    -1.3803150550   -0.5813310091    0.1965118756
C    -2.6388057573   -1.0873427285    0.4049652841
O    -2.7750758309   -2.4577653878    0.4912393651
C    -3.7517573570   -0.2882869471    0.5289592755
C    -3.5805929282    1.0646079282    0.4384350929
C    -2.2999551007    1.6195988838    0.2243699825
O    -2.1888873764    2.9709789596    0.1427034283
C    -1.1991164336    0.7977670593    0.1032514141
C     0.1513118322    1.3016195689   -0.1185231181
O     0.3764023366    2.5271582609   -0.2107682257
C     1.3331947379    0.4415568664   -0.2496166979
C     2.5989423451    0.9518878349   -0.4593189951
H     5.5526990869    0.9225525439    0.0112356716
H     4.3605573137   -1.8589823511   -0.5806552720
H     2.0587998999   -2.8124195361   -0.1980950007
H    -3.6490177864   -2.9439741939    0.6425231604
H    -4.7562461077   -0.6989590924    0.6956717386
H    -4.4337123786    1.7218199498    0.5313191965
H    -1.4625761876    3.5758673167    0.0072544738
H     2.7405859024    2.0298116646   -0.5322286498


