%chk=246-an.chk
%nproc=8
%mem=30GB
#P UB3LYP/6-311++G(d,p) nosym opt freq SCRF=(PCM,Solvent=n,n-DiMethylFormamide)

Reduced

-2 1
C                 -2.7888400000     -0.8703500000     -0.9810300000
C                 -1.4412210000     -0.4172740000     -0.4628090000
C                 -0.2894430000     -1.1236970000     -0.7697150000
C                  0.9981180000     -0.7330970000     -0.3400440000
C                  2.1666070000     -1.5410150000     -0.7029720000
O                  2.0737660000     -2.6135820000     -1.4054960000
C                  3.3979320000     -1.0301110000     -0.1997170000
C                  3.5068520000      0.1307060000      0.5760560000
C                  2.4003710000      0.9461770000      0.9517880000
O                  2.5100080000      2.0165660000      1.6551880000
C                  1.1100130000      0.4585320000      0.4547950000
C                 -0.0733590000      1.1709780000      0.7498040000
C                 -1.3277440000      0.7779480000      0.3118140000
C                 -2.5622840000      1.5673310000      0.6894810000
H                 -2.7007580000     -1.8156340000     -1.5246580000
H                 -3.5186870000     -1.0167700000     -0.1778800000
H                 -3.2450240000     -0.1365060000     -1.6689250000
H                 -0.3425040000     -2.0246400000     -1.3748690000
H                  4.2935900000     -1.6022100000     -0.4422210000
H                  4.4876810000      0.4583490000      0.9209240000
H                  0.0410850000      2.0639350000      1.3583000000
H                 -3.2610730000      0.9842570000      1.3152090000
H                 -2.2941800000      2.4666370000      1.2518070000
H                 -3.1409100000      1.8834690000     -0.1848320000


