%chk=081-an-PCM.chk
%nproc=8
%mem=30GB
#P UB3LYP/6-311++G(d,p) SCRF=(PCM,Solvent=n,n-DiMethylFormamide)

Reduced 

-2 1
C                  1.5166810000      0.9902200000     -3.0847590000
C                  0.2384000000      1.5525320000     -3.4357000000
C                 -0.9467230000      1.0095310000     -3.0017080000
C                 -1.0499390000     -0.1730940000     -2.1763180000
C                  0.1930740000     -0.7870960000     -1.8513170000
O                  2.6066790000      1.5826390000     -3.4002380000
O                 -2.2151290000     -0.6168710000     -1.8108570000
H                  0.2565860000      2.4591800000     -4.0393730000
C                  1.4548680000     -0.2445370000     -2.3060600000
C                  2.7151690000     -0.8605360000     -1.9697320000
C                  3.9460010000     -0.6218510000     -2.8439650000
C                  5.0951240000      0.0285270000     -2.3455760000
C                  4.0216580000     -1.2660210000     -4.0817280000
C                  6.2656520000      0.0190190000     -3.1024470000
C                  6.3345430000     -0.6298640000     -4.3405150000
C                  5.2002350000     -1.2726430000     -4.8296120000
O                  2.9277940000     -1.6671300000     -1.0340450000
C                  5.0175610000      0.7903670000     -1.0476630000
H                  3.1305910000     -1.7543430000     -4.4634900000
H                  7.1435010000      0.5405160000     -2.7231230000
H                  7.2613120000     -0.6258180000     -4.9097310000
H                  5.2281520000     -1.7757270000     -5.7932760000
C                  0.1056190000     -2.0845570000     -1.0822650000
H                 -1.8942770000      1.4750060000     -3.2768030000
H                  0.3828020000     -1.9694950000     -0.0247240000
H                  0.7793640000     -2.8503620000     -1.4810960000
H                 -0.9327820000     -2.4259850000     -1.1264400000
H                  4.2743520000      1.5882240000     -1.1520410000
H                  5.9852980000      1.2351560000     -0.7896190000
H                  4.6919610000      0.1399140000     -0.2314890000





