%chk=298-rad.chk
%nproc=8
%mem=30GB
#P UB3LYP/6-311++G(d,p) nosym opt freq Int=Acc2E=11

Radical

-1 2
 C                 -7.14804200    3.87617000    0.86424200
 C                 -8.10922800    3.13325800    0.20425800
 C                 -7.75839800    2.37453500   -0.93077700
 C                 -5.80919200    3.88804100    0.41646200
 C                 -5.45261600    3.12162200   -0.73020300
 C                 -6.44873200    2.37474500   -1.38301600
 C                 -4.80351400    4.66633300    1.10808700
 C                 -3.46181200    4.61489900    0.57484700
 C                 -3.08413700    3.89066100   -0.53613300
 C                 -4.06576600    3.09578600   -1.24226800
 O                 -5.01233900    5.38490900    2.14039800
 O                 -3.76181500    2.40957400   -2.25300000
 O                 -2.56818700    5.36927600    1.27900000
 C                 -1.66032900    3.88741100   -1.02942500
 C                 -0.83110400    2.70972800   -0.48200700
 C                  0.60733100    2.68867800   -1.01028200
 C                  1.44265200    1.52106200   -0.47269700
 C                  2.88283300    1.49444000   -0.99789600
 C                  3.71334500    0.32367600   -0.45960000
 C                  5.15377800    0.29422600   -0.98339800
 C                  5.97799800   -0.87984100   -0.44221600
 C                  7.42011000   -0.90583000   -0.96651600
 C                  8.22073700   -2.08503900   -0.41293600
 S                  9.93998900   -2.07388400   -1.06426700
 C                 10.60026800   -3.56958900   -0.22728000
 C                 12.06350900   -3.79988500   -0.60643600
 C                 12.66085800   -5.04019400    0.07092600
 C                 14.12844200   -5.28449100   -0.29892400
 C                 14.73254600   -6.52148400    0.37520300
 C                 16.20018300   -6.76667000    0.00678000
 C                 16.80521400   -8.00308700    0.68132200
 C                 18.27281300   -8.24847100    0.31365000
 C                 18.87902600   -9.48451200    0.98789700
 C                 20.34542800   -9.72114300    0.61456200
 H                 -7.39345500    4.46762900    1.73915600
 H                 -9.13560300    3.13353000    0.55994100
 H                 -8.51402300    1.79130500   -1.44866500
 H                 -6.15057100    1.79989700   -2.25255400
 H                 -3.13839000    5.75391400    1.98125200
 H                 -1.17379700    4.82793700   -0.75109500
 H                 -1.67750800    3.81880900   -2.12193100
 H                 -1.33552200    1.77605000   -0.75275400
 H                 -0.81797800    2.76050300    0.61341400
 H                  1.10308100    3.63501300   -0.75339700
 H                  0.58699300    2.64276200   -2.10732800
 H                  0.94672300    0.57614400   -0.73033000
 H                  1.45953900    1.56485000    0.62439000
 H                  3.37982200    2.43893400   -0.73935600
 H                  2.86651100    1.45123500   -2.09494600
 H                  3.21570100   -0.62014800   -0.71826800
 H                  3.72885700    0.36665300    0.63741700
 H                  5.65320800    1.23657500   -0.72347300
 H                  5.13961300    0.25063400   -2.08012500
 H                  5.47945800   -1.82189700   -0.70419300
 H                  5.99135500   -0.83629700    0.65443500
 H                  7.92280900    0.03091500   -0.70069700
 H                  7.41057800   -0.95548100   -2.06116700
 H                  7.74943800   -3.03110000   -0.69515000
 H                  8.26378900   -2.03666500    0.67914400
 H                  9.99158200   -4.43079100   -0.51897600
 H                 10.50419900   -3.43570900    0.85443900
 H                 12.65118000   -2.91596500   -0.33381400
 H                 12.14331500   -3.90350300   -1.69449700
 H                 12.06790800   -5.92325700   -0.19948300
 H                 12.57489600   -4.93637700    1.16012700
 H                 14.72060300   -4.40026600   -0.03026000
 H                 14.21414100   -5.38757300   -1.38828600
 H                 14.13986700   -7.40559300    0.10650800
 H                 14.64581000   -6.41819300    1.46466700
 H                 16.79264500   -5.88226100    0.27492000
 H                 16.28689700   -6.87031400   -1.08263400
 H                 16.21279300   -8.88755200    0.41302800
 H                 16.71816700   -7.89941900    1.77077300
 H                 18.86618200   -7.36441200    0.58178300
 H                 18.36088200   -8.35279100   -0.77579900
 H                 18.28707000  -10.36814200    0.71958600
 H                 18.79184800   -9.38045000    2.07637300
 H                 20.46060400   -9.86400000   -0.46467900
 H                 20.74712900  -10.60887700    1.11140100
 H                 20.96922700   -8.86878300    0.90229600











