%chk=208-rad.chk
%nproc=8
%mem=30GB
#P UB3LYP/6-311++G(d,p) nosym  opt freq

Radical

-1 2
O                  4.6093290000      1.5051220000     -1.4115330000
C                  3.4995850000      0.9530890000     -0.8163730000
C                  2.2352230000      1.1967930000     -1.3158700000
C                  1.1062520000      0.6241260000     -0.6942070000
C                 -0.2228820000      0.8770010000     -1.2146410000
O                 -0.4188300000      1.6186170000     -2.2426760000
C                 -1.3364850000      0.2590440000     -0.5295590000
C                 -2.6509190000      0.4835600000     -1.0100980000
O                 -2.8852390000      1.2620920000     -2.0933140000
C                 -3.7588600000     -0.0851460000     -0.3911290000
O                 -5.0145470000      0.1555220000     -0.8856440000
C                 -3.5756350000     -0.9027410000      0.7381000000
O                 -4.7056270000     -1.4404270000      1.3122550000
C                 -2.3037590000     -1.1398240000      1.2298600000
C                 -1.1710690000     -0.5719070000      0.6151710000
C                  0.1535870000     -0.8261560000      1.1369390000
O                  0.3468320000     -1.5701170000      2.1674770000
C                  1.2662260000     -0.2092120000      0.4533090000
C                  2.5777090000     -0.4397860000      0.9406080000
O                  2.8142810000     -1.2185420000      2.0238560000
C                  3.6688620000      0.1337750000      0.3123480000
O                  4.9526170000     -0.0831730000      0.7771410000
H                  5.3805870000      1.2120660000     -0.9102000000
H                  2.0994890000      1.8269590000     -2.1847160000
H                 -1.9505770000      1.5675690000     -2.3799060000
H                 -4.8842820000      0.7348470000     -1.6505830000
H                 -4.4257100000     -1.9704970000      2.0653990000
H                 -2.1524090000     -1.7694940000      2.1008460000
H                  1.8775250000     -1.5219580000      2.3085340000
H                  4.8687260000     -0.6612040000      1.5486060000


