%chk=081-rad.chk
%nproc=8
%mem=30GB
#P UB3LYP/6-311++G(d,p) nosym  opt freq

Radical

-1 2
C                  1.3858470000      1.1975660000     -2.9767240000
C                  0.1020590000      1.5734970000     -3.5325700000
C                 -1.0175550000      0.8248040000     -3.3279770000
C                 -1.0111360000     -0.3959850000     -2.5472520000
C                  0.2722850000     -0.8104810000     -1.9876070000
O                  2.4011860000      1.9341110000     -3.0947520000
O                 -2.0677690000     -1.0676910000     -2.3703990000
H                  0.0751520000      2.4972040000     -4.1035770000
C                  1.4172640000     -0.0563290000     -2.2245590000
C                  2.7426140000     -0.4617910000     -1.6837760000
C                  3.9219880000     -0.4808910000     -2.6300720000
C                  5.2008580000     -0.0336220000     -2.2389890000
C                  3.7454240000     -1.0590060000     -3.8899050000
C                  6.2581460000     -0.1870210000     -3.1388810000
C                  6.0805330000     -0.7839610000     -4.3875770000
C                  4.8163790000     -1.2244130000     -4.7655910000
O                  2.9036490000     -0.8465120000     -0.5303400000
C                  5.4369530000      0.6497330000     -0.9138860000
H                  2.7510050000     -1.3781340000     -4.1813700000
H                  7.2423340000      0.1763300000     -2.8567980000
H                  6.9248700000     -0.8926510000     -5.0610640000
H                  4.6590670000     -1.6813100000     -5.7370240000
C                  0.2637880000     -2.0891980000     -1.1910840000
H                 -1.9782900000      1.1211880000     -3.7401160000
H                  0.0222130000     -1.8874160000     -0.1409980000
H                  1.2298630000     -2.5942820000     -1.2014160000
H                 -0.5174610000     -2.7470790000     -1.5761260000
H                  4.7288060000      1.4711880000     -0.7758090000
H                  6.4511420000      1.0561080000     -0.8699250000
H                  5.2929150000     -0.0390560000     -0.0795450000


