%chk=314-an.chk
%nproc=8
%mem=30GB
#P UB3LYP/6-311++G(d,p) nosym opt freq

Reduced

-2 1
C                 -4.4364790000     -0.5319680000     -3.5519220000
C                 -3.5502210000     -0.9479240000     -4.5285310000
C                 -2.1582100000     -0.8072840000     -4.3207590000
C                 -3.9919890000      0.0348820000     -2.3347250000
C                 -2.5830580000      0.1740930000     -2.1259800000
C                 -1.6980340000     -0.2562700000     -3.1374350000
C                 -4.9770330000      0.4565500000     -1.3380320000
C                 -4.4386610000      1.0100190000     -0.1375380000
C                 -3.0315560000      1.1588870000      0.0497590000
C                 -2.0342860000      0.7634360000     -0.8990580000
O                 -6.2382480000      0.3190260000     -1.5570000000
O                 -0.7783760000      0.8780800000     -0.7167560000
H                 -5.5102250000     -0.6241470000     -3.6790010000
H                 -3.9213610000     -1.3817240000     -5.4552510000
H                 -1.4551790000     -1.1326180000     -5.0848010000
H                 -0.6375990000     -0.1331310000     -2.9421670000
C                 -5.4316610000      1.4261870000      0.9179480000
S                 -2.4452480000      2.0589620000      1.4897240000
C                 -1.6560410000      0.8835210000      2.5627340000
C                 -1.3268490000      1.2723800000      3.8520140000
C                 -0.6921960000      0.3892440000      4.7578940000
C                 -0.3797670000     -0.9439860000      4.3292140000
C                 -0.7209000000     -1.3137700000      3.0005270000
C                 -1.3349800000     -0.4379210000      2.1393370000
C                 -0.3544130000      0.7652460000      6.0879570000
C                  0.2641950000     -0.1152720000      6.9478740000
C                  0.5708170000     -1.4297250000      6.5225270000
C                  0.2508050000     -1.8272740000      5.2417500000
H                 -5.4990470000      2.5194750000      1.0245910000
H                 -5.1683540000      1.0360730000      1.9080840000
H                 -6.4144920000      1.0548320000      0.6202330000
H                 -1.5684070000      2.2774340000      4.1882330000
H                 -0.4758990000     -2.3166770000      2.6603270000
H                 -1.5735580000     -0.7232260000      1.1238190000
H                 -0.5905000000      1.7738230000      6.4172800000
H                  0.5218100000      0.1958790000      7.9575870000
H                  1.0589960000     -2.1179670000      7.2075880000
H                  0.4832140000     -2.8359860000      4.9095850000


