%chk=185-an.chk
%nproc=8
%mem=30GB
#P UB3LYP/6-311++G(d,p) nosym opt freq

Reduced

-2 1
C          4.96895       -2.83544       -0.40353
C          5.69059       -1.92450       -1.17931
C          5.09633       -0.73362       -1.59286
C          3.63779       -2.56362       -0.03097
C          3.04341       -1.36424       -0.44908
C          3.78103       -0.45281       -1.23136
C          2.86641       -3.52715        0.79274
C          1.44282       -3.24512        1.19588
C          0.84336       -2.01752        0.76445
C          1.65073       -1.06157       -0.06920
C          0.66254       -4.15283        1.99280
C         -0.65042       -3.83246        2.33194
C         -0.50936       -1.74116        1.14298
C         -1.22229       -2.64934        1.91385
O          3.42159       -4.55825        1.13493
O          1.17810       -0.00608       -0.45686
O          1.10313       -5.34166        2.46527
H          5.45144       -3.75326       -0.09437
H          6.71180       -2.14212       -1.46019
H          5.65285       -0.02589       -2.19395
H          3.34094        0.47965       -1.56502
H          1.96939       -5.73620        2.34082
O         -1.18694       -0.62387        0.80187
H         -2.24632       -2.42800        2.19382
H         -1.24155       -4.51498        2.93289
H         -0.87403        0.11505        0.27902








