%chk=328-rad.chk
%nproc=8
%mem=30GB
#P UB3LYP/6-311++G(d,p) nosym  opt freq

Radical

-1 2
C                 -1.2508790000      2.6060090000     -0.7461020000
C                 -2.3135990000      1.9752740000     -0.1492120000
C                 -2.1647940000      0.6611260000      0.3758350000
C                  0.0216420000      1.9709930000     -0.8575040000
C                  0.1703920000      0.6396210000     -0.3252740000
C                 -0.9542560000      0.0178010000      0.2868490000
C                  1.1276410000      2.5891690000     -1.4619860000
C                  2.3682260000      1.9654290000     -1.5689030000
C                  2.5098470000      0.6292680000     -1.0329360000
C                  1.4227160000      0.0059320000     -0.4316530000
C                  3.4805650000      2.6825320000     -2.2178120000
C                  4.7851460000      1.9692540000     -2.3053880000
C                  4.8507200000      0.6248910000     -1.7433540000
C                  3.7979380000     -0.0086300000     -1.1486410000
O                  3.3260230000      3.8374890000     -2.6712570000
O                  5.7959090000      2.4795090000     -2.8334980000
H                 -1.3624320000      3.6089380000     -1.1471940000
H                 -3.2734460000      2.4766320000     -0.0746910000
H                 -3.0112060000      0.1708620000      0.8459940000
H                 -0.8371670000     -0.9857000000      0.6865060000
H                  1.0396510000      3.5907340000     -1.8694220000
H                  1.5422650000     -0.9951680000     -0.0337670000
H                  5.8213320000      0.1521710000     -1.8340710000
O                  3.8540710000     -1.2836210000     -0.6143040000
C                  5.0847770000     -1.9803800000     -0.6845040000
C                  4.8861500000     -3.3263240000     -0.0406150000
C                  5.8219680000     -4.2660250000      0.0704850000
H                  5.8715910000     -1.4136080000     -0.1670480000
H                  5.3994110000     -2.0917190000     -1.7316530000
H                  3.8865080000     -3.4975530000      0.3495570000
H                  6.8297730000     -4.1232980000     -0.3101490000
H                  5.6126990000     -5.2161110000      0.5484440000





