%chk=241-an.chk
%nproc=8
%mem=30GB
#P UB3LYP/6-311++G(d,p) nosym opt freq

Reduced

-2 1
C    -2.4768897993    1.8589894504   -0.0586501401
C    -1.3329974879    0.9234251735   -0.0226117818
C    -1.5190751450   -0.3728169708    0.1547179961
C    -2.9036984111   -0.8732236352    0.3176108823
C    -0.3860257342   -1.3195627724    0.1929395966
O    -0.5950379004   -2.5515168594    0.3637848702
C     0.9937243635   -0.8689157428    0.0366764922
C     2.0706097976   -1.7407390356    0.0694695724
C     3.3738658687   -1.3102991444   -0.0787223076
C     3.5615682301    0.0440907194   -0.2635206173
C     2.4881443983    0.9235946452   -0.2975346312
C     1.1888964269    0.4851369989   -0.1486153409
C     0.0466544942    1.3923112235   -0.1811702170
O     0.2639952869    2.6134217755   -0.3512354163
H    -2.8857485538    2.0055134893   -1.0796985668
H    -3.3250160175    1.5321256359    0.5794116813
H    -2.1621304812    2.8574378388    0.3652948352
H    -2.8958288386   -1.9769605241    0.1865273130
H    -3.5686627195   -0.4745451150   -0.4719901191
H    -3.2949300318   -0.6962731545    1.3452160401
H     1.9010389768   -2.8044357011    0.2162047284
H     4.2152738548   -2.0019972704   -0.0517626914
H     4.5908478678    0.3770722074   -0.3796843620
H     2.6514215548    1.9781667680   -0.4426578161


