%chk=164-rad-new.chk
%nproc=8
%mem=30GB
#P UB3LYP/6-311++G(d,p) nosym  opt freq

Radical

-4 2
 N                  3.26754446   -1.35959554   -3.03485383
 C                  2.60941846   -0.12536554   -2.79256983
 C                  1.93063846    0.12675546   -1.59873183
 C                  2.70740546    0.86734346   -3.77080483
 C                  1.30235446    1.36366846   -1.37874983
 C                  2.12018546    2.10438346   -3.53700883
 C                  1.42148346    2.37239646   -2.36513983
 S                  0.80182146    4.08815646   -2.14778483
 O                 -0.44346254    3.91241946   -1.33626183
 O                  1.88946146    4.77893946   -1.42164283
 O                  0.56397046    4.57817346   -3.52233183
 N                  0.53566746    1.64430446   -0.23536783
 C                  0.28266646    0.91135946    0.87448717
 N                  0.89212346   -0.28637354    1.06106317
 C                  0.54445846   -0.87695054    2.18716917
 N                 -0.28187554   -0.48016054    3.11265317
 C                 -0.85097954    0.73938546    2.82996717
 N                 -0.59521054    1.45685646    1.74030017
 Cl                 1.31727946   -2.45390554    2.47357317
 N                 -1.71958354    1.15248546    3.78110817
 C                 -2.55069054    2.29395446    3.90703317
 C                 -2.57925954    3.35458646    2.99863317
 C                 -3.38005454    2.31636546    5.03972617
 C                 -3.44514054    4.42349946    3.24613417
 C                 -4.23316154    3.38434646    5.26729817
 C                 -4.26939054    4.45068146    4.36591917
 S                 -5.32783054    3.37429646    6.73795317
 O                 -4.88703254    2.18491846    7.51512117
 O                 -5.06158654    4.67487746    7.40477417
 O                 -6.69816454    3.25816246    6.17471117
 H                  4.18901446   -1.32857354   -3.47500483
 H                  1.90348046   -0.61105254   -0.81409183
 H                  3.23039646    0.66610146   -4.69922983
 H                  2.17613746    2.89160646   -4.27896383
 H                  0.00680446    2.52997546   -0.30853483
 H                 -1.80074654    0.48511346    4.53542617
 H                 -1.94479554    3.34567046    2.12587917
 H                 -3.37043054    1.50603546    5.76212217
 H                 -3.46399854    5.24771046    2.54061417
 H                 -4.93270254    5.28616846    4.55348517
 C                  2.85380746   -2.62267854   -2.75344683
 C                  3.70838246   -3.74918354   -2.94387683
 C                  1.52094046   -2.86177754   -2.29535583
 C                  1.08568146   -4.11358054   -1.99486483
 C                  3.23937346   -5.07744454   -2.60705583
 C                  1.92651546   -5.25593654   -2.11802683
 C                  4.11094646   -6.24014554   -2.73741483
 C                  5.48959246   -6.02617554   -3.24230183
 C                  5.93426846   -4.74468954   -3.59694483
 C                  5.04677246   -3.55873854   -3.47555483
 C                  6.35396546   -7.12280054   -3.37029983
 C                  7.64527946   -6.94443654   -3.84356683
 C                  8.09004746   -5.66407454   -4.19842583
 C                  7.24065746   -4.57436454   -4.07744083
 O                  3.75258946   -7.39723754   -2.44186583
 O                  5.49070246   -2.44865154   -3.83556883
 N                  1.40657046   -6.47416454   -1.79521283
 H                  0.84476346   -2.02472054   -2.20037283
 H                  5.98297346   -8.10055254   -3.08935483
 H                  8.31094046   -7.79588154   -3.93829383
 H                  9.10073546   -5.52400354   -4.56712783
 H                  7.55862546   -3.57436954   -4.34433883
 H                  2.04529446   -7.26255154   -1.80200783
 H                  0.54734946   -6.50896854   -1.27257883
 S                 -0.58915787   -4.34715671   -1.43920720
 O                 -0.58168359   -4.86946004    0.14699687
 O                 -1.29524931   -5.42271798   -2.34154587
 O                 -1.41762100   -2.90101867   -1.54519598

































