%chk=064-rad.chk
%nproc=8
%mem=30GB
#P UB3LYP/6-311++G(d,p) nosym  opt freq

Radical

-1 2
O                  1.4309200000      2.3150760000     -0.2304830000
C                  0.7940040000      1.2260700000     -0.2008160000
C                 -0.6503380000      1.2161780000     -0.2420450000
C                 -1.4407280000      0.0881520000     -0.2168030000
C                 -0.7940430000     -1.2261790000     -0.1196070000
O                 -1.4309780000     -2.3151660000     -0.0897490000
C                  0.6502980000     -1.2162750000     -0.0784720000
C                  1.4407170000     -0.0882470000     -0.1037390000
C                  2.9160660000     -0.2077430000     -0.0244680000
C                  3.5138250000     -1.2365900000      0.7269870000
C                  4.8966180000     -1.3913920000      0.7804690000
C                  5.7299720000     -0.5133660000      0.0878060000
C                  5.1559550000      0.5221190000     -0.6505390000
C                  3.7732480000      0.6791270000     -0.7030120000
C                 -2.9160970000      0.2076810000     -0.2963500000
C                 -3.5136220000      1.2364510000     -1.0481050000
C                 -4.8963980000      1.3913200000     -1.1019130000
C                 -5.7299330000      0.5134590000     -0.4092690000
C                 -5.1561260000     -0.5219120000      0.3294110000
C                 -3.7734390000     -0.6789790000      0.3821920000
H                 -1.1024280000      2.2025890000     -0.2717240000
H                  1.1023710000     -2.2027020000     -0.0489070000
H                  2.8813120000     -1.9130260000      1.2903350000
H                  5.3238970000     -2.1942040000      1.3737270000
H                  6.8083710000     -0.6286980000      0.1303080000
H                  5.7910950000      1.2187300000     -1.1894970000
H                  3.3373760000      1.4988880000     -1.2557070000
H                 -2.8808970000      1.9127760000     -1.6113360000
H                 -5.3235030000      2.1940420000     -1.6954200000
H                 -6.8083180000      0.6288460000     -0.4519780000
H                 -5.7914380000     -1.2183540000      0.8683820000
H                 -3.3377600000     -1.4986710000      0.9351670000


