%chk=339.chk
%nproc=8
%mem=30GB
#P UB3LYP/6-311++G(d,p) nosym opt freq

Oxidized

0 1
O                 -0.0215880000     -2.5548930000      0.0109320000
C                 -0.0219930000     -1.3486590000      0.1884370000
C                  1.2768560000     -0.6140040000      0.3021600000
C                  2.4579560000     -1.3652150000      0.2011630000
C                  3.7005300000     -0.7564640000      0.2969990000
C                  3.7914090000      0.6227600000      0.4968600000
C                  2.6366820000      1.3889620000      0.6002370000
C                  1.3932660000      0.7666410000      0.5023980000
S                 -0.0230160000      1.8613840000      0.6496630000
O                 -0.0173120000      2.7798200000     -0.4932230000
C                 -1.4386360000      0.7676520000      0.4890820000
C                 -2.6824720000      1.3908630000      0.5752090000
C                 -3.8367220000      0.6254830000      0.4609710000
C                 -3.7449500000     -0.7538070000      0.2619770000
C                 -2.5019640000     -1.3634460000      0.1778380000
C                 -1.3213310000     -0.6130780000      0.2899440000
H                  2.3654670000     -2.4326290000      0.0465190000
H                  4.6011960000     -1.3535850000      0.2164890000
H                  4.7604440000      1.1020150000      0.5723270000
H                  2.6959670000      2.4594440000      0.7553890000
H                 -2.7424510000      2.4613880000      0.7297940000
H                 -4.8060820000      1.1054310000      0.5273130000
H                 -4.6452450000     -1.3502850000      0.1729950000
H                 -2.4087890000     -2.4309260000      0.0240620000
O                 -0.0291680000      2.4289330000      2.0015460000


