%chk=022-rad-PCM.chk
%nproc=8
%mem=30GB
#P UB3LYP/6-311++G(d,p) SCRF=(PCM,Solvent=n,n-DiMethylFormamide)

Radical PCM in DMF 

-1 2
C                 -3.5472230000      0.1628460000      0.3583190000
O                 -2.6841630000      0.6479940000     -0.6729560000
C                 -1.3580800000      0.3274340000     -0.5530460000
C                 -0.4197790000      1.3295800000     -0.4989850000
Cl                -0.9394520000      3.0109310000     -0.4913790000
C                  1.0122210000      1.0941500000     -0.4688870000
O                  1.8670420000      2.0117050000     -0.4641950000
C                  1.3995320000     -0.3171740000     -0.4372610000
C                  0.4611850000     -1.3193310000     -0.4896430000
Cl                 0.9797830000     -3.0009500000     -0.4737810000
C                 -0.9681050000     -1.0832160000     -0.5817540000
O                 -1.8190070000     -1.9997690000     -0.6737370000
O                  2.7312930000     -0.6362860000     -0.4458780000
C                  3.4991040000     -0.1747400000      0.6683370000
H                 -3.2574440000      0.5881740000      1.3275610000
H                 -4.5477640000      0.5137910000      0.0990680000
H                 -3.5272830000     -0.9267570000      0.4011770000
H                  3.4758660000      0.9137710000      0.7320450000
H                  3.1237360000     -0.6193710000      1.5987690000
H                  4.5185370000     -0.5227810000      0.4921310000





