%chk=300.chk
%nproc=32
%mem=825GB
#P UB3LYP/6-311++G(d,p) nosym Int=Acc2E=11 opt freq SCRF=(PCM,Solvent=n,n-DiMethylFormamide)

Oxidized

0 1
C                 -0.02137800    4.10189800    0.79204800
 C                 -1.13431700    4.10330700   -0.04474900
 C                 -1.09300100    3.41795100   -1.25959600
 C                  1.13297500    3.41354600    0.41171700
 C                  1.17824200    2.72239100   -0.81189200
 C                  0.05886400    2.73053300   -1.64214200
 C                  2.31711500    3.40311800    1.28659100
 C                  3.52099100    2.64575000    0.83488400
 C                  3.59141000    1.98006900   -0.34437700
 C                  2.41302800    1.98091500   -1.23222200
 O                  2.37962100    3.97887800    2.36862000
 O                  2.43761100    1.38672300   -2.30640800
 O                  4.54902400    2.68259700    1.69733800
 C                  4.81775000    1.21853900   -0.76476400
 C                  4.78704500   -0.26190400   -0.32726600
 C                  6.03288600   -1.03231500   -0.77655900
 C                  6.02637700   -2.50309800   -0.34479200
 C                  7.26801800   -3.27835800   -0.80017800
 C                  7.26637000   -4.74888700   -0.36741100
 C                  8.50423300   -5.52410300   -0.83215100
 C                  8.50453900   -6.99367800   -0.39572000
 C                  9.74371700   -7.76049300   -0.87268500
 C                  9.73077100   -9.21304700   -0.42521700
 H                 -0.03619100    4.62859500    1.73800900
 H                 -2.03080700    4.63622400    0.24853200
 H                 -1.95933200    3.41880900   -1.91056000
 H                  0.09885600    2.19680500   -2.58305600
 H                  4.26068400    3.23060500    2.45201300
 H                  5.70210400    1.70029600   -0.33998500
 H                  4.90205300    1.26627800   -1.85307900
 H                  3.89161300   -0.73989600   -0.73920800
 H                  4.69709700   -0.31254400    0.76367100
 H                  6.92722100   -0.54032900   -0.37318300
 H                  6.11751200   -0.97558300   -1.86928800
 H                  5.12848800   -2.99277800   -0.74328200
 H                  5.94601600   -2.55852300    0.74849200
 H                  8.16616600   -2.78653600   -0.40468800
 H                  7.34604500   -3.22392900   -1.89376000
 H                  6.36540100   -5.23952500   -0.75791300
 H                  7.19496500   -4.80369000    0.72659900
 H                  9.40580100   -5.03273500   -0.44461800
 H                  8.57328300   -5.47279100   -1.92624800
 H                  7.60151800   -7.48444200   -0.77981100
 H                  8.44173800   -7.04516700    0.69845500
 H                 10.64966000   -7.27951300   -0.48784400
 H                  9.80308900   -7.72710100   -1.96606500
 H                  8.84975500   -9.73327200   -0.81912600
 H                  9.71018300   -9.28202100    0.66873300
 O                 10.92144700   -9.84245500   -0.92331500
 C                 11.13560700  -11.16474700   -0.64714100
 C                 10.27301000  -11.97032500    0.10337900
 C                 12.31019900  -11.72152000   -1.16556300
 C                 10.59556000  -13.31134400    0.32480500
 H                  9.35694200  -11.57192800    0.51833000
 C                 12.61000800  -13.05972700   -0.93525900
 H                 12.97691200  -11.09397500   -1.74618300
 C                 11.76273000  -13.88799700   -0.18543400
 H                  9.90855500  -13.91106600    0.91278100
 H                 13.52582600  -13.47057400   -1.34905200
 C                 12.10717500  -15.34818900    0.04737000
 C                 12.35696700  -15.67036600    1.54869200
 H                 11.67279100  -15.08215300    2.16777300
 H                 13.36857600  -15.34274300    1.81099200
 C                 12.18275100  -17.17118600    1.87851900
 H                 11.14450200  -17.36875400    2.16979400
 H                 12.79832300  -17.43523900    2.74366000
 C                 12.53378600  -18.05194500    0.67409100
 H                 12.50048500  -19.11072600    0.94754200
 H                 13.56740700  -17.84621700    0.37216300
 C                 11.57444100  -17.77904100   -0.50806100
 H                 10.71943900  -18.46102500   -0.45575900
 H                 12.08732800  -17.99890400   -1.45007000
 C                 11.05600400  -16.32155900   -0.52627000
 H                 10.79073800  -16.03050000   -1.54677100
 H                 10.13688700  -16.24295800    0.06521200
 H                 13.04134500  -15.53755100   -0.49389300



























