%chk=245-an.chk
%nproc=8
%mem=30GB
#P UB3LYP/6-311++G(d,p) nosym opt freq

Reduced

-2 1
C                  5.7262790000     -5.3612270000      1.3133610000
C                  6.6943750000     -5.1993200000      0.3386510000
C                  6.6113890000     -4.1637990000     -0.6145970000
C                  4.6098360000     -4.4576320000      1.3694700000
C                  4.5107720000     -3.3936680000      0.3612760000
C                  5.5551370000     -3.2706020000     -0.6186360000
C                  3.5882230000     -4.6071590000      2.4147060000
C                  2.5208770000     -3.6722650000      2.3468950000
C                  2.4225820000     -2.6700220000      1.3868440000
C                  3.3729180000     -2.4642130000      0.3512620000
O                  3.6325400000     -5.5095030000      3.3402670000
O                  3.2203050000     -1.5231440000     -0.5226380000
C                  5.9260220000     -6.4990990000      2.2972010000
H                  7.5462860000     -5.8782110000      0.3141840000
H                  1.5741670000     -1.9855180000      1.3950680000
C                  5.5599990000     -2.2064040000     -1.7003570000
H                  7.3897810000     -4.0737160000     -1.3717170000
H                  6.8331690000     -7.0587860000      2.0254610000
H                  5.0719070000     -7.1776280000      2.3160340000
H                  6.0142200000     -6.1325030000      3.3227470000
H                  1.7527340000     -3.7727210000      3.1138850000
H                  5.5051300000     -1.1997400000     -1.2833510000
H                  4.6840660000     -2.2884010000     -2.3483850000
H                  6.4755380000     -2.3047900000     -2.3020900000


