%chk=189-an.chk
%nproc=8
%mem=30GB
#P UB3LYP/6-311++G(d,p) nosym opt freq

Reduced

-2 1
O    -4.9280851379    1.0873984602    0.3540556891
C    -3.7087846992    0.4222545031    0.2401654054
C    -3.6367564721   -0.9550456901    0.1424517995
C    -2.4267873066   -1.5691278016    0.0325602542
C    -1.2343908503   -0.8712859707    0.0128736742
C     0.0523374685   -1.5515951262   -0.1058201923
O     0.1123973072   -2.8069159728   -0.1945608907
C     1.3039093380   -0.8000209667   -0.1251654689
C     2.5324474291   -1.4069921948   -0.2356062809
C     3.7156918148   -0.6728926768   -0.2523076766
C     3.6496494633    0.7032608401   -0.1550151742
O     4.8357108513    1.4109322262   -0.1736746463
C     2.4127450847    1.2981037516   -0.0449246564
C     1.2149440432    0.5725040631   -0.0268253274
C    -0.0683852768    1.2546227905    0.0918021122
O    -0.1417029464    2.5042313122    0.1809015835
C    -1.3097730733    0.5006040416    0.1104098970
C    -2.5341480694    1.1352722016    0.2225085163
H    -5.3802372633    1.3676600452   -0.5097939472
H    -4.5791616126   -1.5197072015    0.1571204154
H    -2.3479977521   -2.6470814398   -0.0451950697
H     2.6052485305   -2.4805972194   -0.3127037155
H     4.6745740509   -1.1822065857   -0.3409219145
H     5.3711098224    1.6457291245    0.6518599103
H     2.3299429283    2.3531274607    0.0314770739
H    -2.5144976723    2.2077680253    0.2943286292


