%chk=051-rad.chk
%nproc=8
%mem=30GB
#P UB3LYP/6-311++G(d,p) nosym  opt freq

Radical

-1 2
C                  3.4321440000      5.9554630000      0.6136320000
C                  2.1370590000      5.4312330000      1.0360990000
C                  1.9928270000      4.0965350000      1.3476670000
C                  3.1092710000      3.1814940000      1.2501290000
C                  4.4019150000      3.6935250000      0.8397910000
C                  4.5530760000      5.0276100000      0.5370280000
O                  3.5903990000      7.1757400000      0.3203110000
O                  2.9628350000      1.9336630000      1.5239390000
C                  5.8641030000      5.6278380000      0.0959710000
C                  5.5407760000      2.7031720000      0.7596620000
C                  0.9980800000      6.4208680000      1.1112430000
C                  0.6824110000      3.5030750000      1.8161580000
C                  0.0043670000      2.5407700000      0.7874830000
C                 -0.2248260000      1.1234560000      1.3050300000
O                 -1.3175150000      0.5888780000      1.2887980000
O                  0.8523060000      0.5013460000      1.7697550000
H                  6.6941130000      4.9158840000      0.1765180000
H                  6.0944400000      6.5221310000      0.6955310000
H                  5.8020960000      5.9761180000     -0.9467580000
H                  5.1769600000      1.7109890000      1.0308320000
H                  6.3585810000      2.9680790000      1.4405070000
H                  5.9664550000      2.6525110000     -0.2489990000
H                  1.3327560000      7.3761400000      0.7086150000
H                  0.6714200000      6.5881150000      2.1451280000
H                  0.1224450000      6.0846400000      0.5460050000
H                 -0.0208580000      4.2983340000      2.0619220000
H                  0.8651450000      2.9563640000      2.7465210000
H                  0.6337150000      2.4655620000     -0.1049750000
H                 -0.9651910000      2.9262700000      0.4708070000
H                  1.6828590000      1.0905300000      1.6917680000





