%chk=349.chk
%nproc=8
%mem=30GB
#P UB3LYP/6-311++G(d,p) nosym opt freq SCRF=(PCM,Solvent=n,n-DiMethylFormamide)

Oxidized

0 1
C                 -3.5503130000      0.2039520000      0.8569230000
C                 -3.5797690000     -0.1789870000     -0.5174020000
C                 -2.4207210000     -0.3710750000     -1.2161620000
C                 -1.1577010000     -0.1899010000     -0.5757560000
N                 -0.0291900000     -0.3809860000     -1.2705500000
C                  1.1278050000     -0.1978870000     -0.6223740000
C                  2.3624780000     -0.3878490000     -1.3139960000
C                  3.5503120000     -0.2039970000     -0.6633120000
C                  3.5796990000      0.1790030000      0.7112270000
C                  2.4208300000      0.3710940000      1.4099970000
C                  1.1575820000      0.1899250000      0.7696090000
N                  0.0292940000      0.3809980000      1.4643610000
C                 -1.1279210000      0.1978830000      0.8161280000
C                 -2.3624120000      0.3878370000      1.5077200000
H                 -4.4859380000      0.3490550000      1.3850630000
H                 -4.5370670000     -0.3175230000     -1.0070380000
H                 -2.4193500000     -0.6618830000     -2.2598840000
H                  2.3161820000     -0.6784820000     -2.3567240000
H                  4.4860150000     -0.3490510000     -1.1912760000
H                  4.5370800000      0.3175010000      1.2007250000
H                  2.4193750000      0.6619030000      2.4537210000
H                 -2.3162730000      0.6784710000      2.5504530000


