%chk=257.chk
%nproc=8
%mem=30GB
#P UB3LYP/6-311++G(d,p) nosym opt freq

Oxidized

0 1
C                  3.9462240000      0.6252370000     -0.1082270000
O                  2.6685970000      1.2623160000     -0.1569770000
C                  1.5738650000      0.5017230000     -0.0958500000
C                  1.5380680000     -0.8474530000      0.0113380000
C                  0.2807010000     -1.5977470000      0.0713670000
O                  0.2812120000     -2.8174120000      0.1685710000
C                 -0.9980120000     -0.8229180000      0.0106630000
C                 -2.2185800000     -1.4968600000      0.0646320000
C                 -3.4117330000     -0.7826330000      0.0084430000
C                 -3.3927250000      0.6097730000     -0.1020190000
C                 -2.1802190000      1.2886320000     -0.1563260000
C                 -0.9783980000      0.5769880000     -0.1003410000
C                  0.3086620000      1.3237760000     -0.1599750000
O                  0.3613180000      2.5324510000     -0.2553090000
H                  4.0735930000      0.0820750000      0.8327530000
H                  4.6762420000      1.4286480000     -0.1737210000
H                  4.0705950000     -0.0606210000     -0.9513340000
H                  2.4349980000     -1.4509680000      0.0588910000
H                 -2.2096550000     -2.5765240000      0.1502050000
H                 -4.3584350000     -1.3092340000      0.0505710000
H                 -4.3238450000      1.1630930000     -0.1455650000
H                 -2.1424710000      2.3676580000     -0.2418850000


