%chk=222.chk
%nproc=8
%mem=30GB
#P UB3LYP/6-311++G(d,p) nosym opt freq

Oxidized

-1 1
O    -2.1061362465   -2.8489573889   -1.7477127113
S    -2.6890593421   -2.2321798856   -0.3027159689
O    -2.2831134816   -3.1013916251    0.8767740576
O    -4.2008719220   -2.3840725426   -0.3722265644
C    -2.3272690645   -0.5648542635   -0.0478096845
C    -3.3422980746    0.3911976388    0.0782421539
C    -3.1168919461    1.7134128215    0.2696969221
C    -1.8073484099    2.1430759652    0.3449583735
C    -0.7557719344    1.2715341009    0.2316178511
C     0.6423983479    1.7431401457    0.3168945518
O     0.8142354632    2.9768384733    0.4945190088
C     1.7428340694    0.8112345525    0.1987662060
C     3.0332137626    1.2873938204    0.2832606608
C     4.0814827313    0.3775270837    0.1676705654
C     3.8463935439   -0.9724260491   -0.0271974192
C     2.5318701683   -1.4047752896   -0.1057904535
C     1.4797144448   -0.5072631283    0.0079908776
C     0.0997056622   -0.9640891490   -0.0750161484
O    -0.0994220859   -2.1705374477   -0.2483118926
C    -1.0413266276   -0.0745035001    0.0362121310
H    -4.3691426651    0.0438454574    0.0177802125
H    -3.9283196669    2.4216019755    0.3624103380
H    -1.5768190071    3.2059832606    0.4992266339
H     3.2487818787    2.3258414675    0.4336068845
H     5.1208192202    0.6832233199    0.2246715400
H     4.6402042604   -1.7018070735   -0.1204537012
H     2.3621369211   -2.4689927400   -0.2592064247


