%chk=149.chk
%nproc=8
%mem=30GB
#P UB3LYP/6-311++G(d,p) nosym opt freq

Oxidized

0 1
C         -3.33059        3.29439        1.21370
C         -4.56342        2.64459        1.13080
C         -4.65170        1.39242        0.52468
C         -2.17989        2.69352        0.68392
C         -2.27039        1.44314        0.08105
C         -3.50718        0.78900        0.00178
C         -0.88038        3.39005        0.77903
C          0.30033        2.82117        0.08093
C          0.20528        1.54990       -0.49491
C         -1.06730        0.80043       -0.47330
C          1.51212        3.52252       -0.02743
C          2.62466        2.92258       -0.63936
C          2.52572        1.64598       -1.18587
C          1.31506        0.96280       -1.12238
O         -0.81583        4.41407        1.44865
O         -1.12856       -0.33728       -0.92571
H         -3.58221       -0.19026       -0.46810
H          1.23691       -0.02951       -1.56437
H         -3.26990        4.27010        1.69303
O          1.63735        4.78756        0.50920
H          3.38725        1.18872       -1.66654
H         -5.61115        0.88396        0.46061
C          2.03802        5.76887       -0.37137
C          1.25499        6.17844       -1.45662
C          3.24979        6.41115       -0.10726
C          3.70877        7.41210       -0.96550
C          1.72444        7.16378       -2.32657
C          2.95187        7.78045       -2.07938
O          0.03676        5.60294       -1.70886
C         -0.99658        6.40728       -1.13393
H         -5.45380        3.11518        1.54183
H          3.57349        3.45076       -0.69368
H          3.83879        6.12345        0.75908
H          4.65815        7.90334       -0.76738
H          1.13241        7.45546       -3.18920
H          3.31455        8.55425       -2.75139
H         -1.92698        5.83267       -1.16853
H         -1.14107        7.32163       -1.71936
H         -0.78979        6.65897       -0.08764






