%chk=159-rad.chk
%nproc=8
%mem=30GB
#P UB3LYP/6-311++G(d,p) nosym opt freq

Radical

-1 2
N    -2.8403662726    1.5885043588    1.0677850503
C    -2.4666415896    0.4910588069    0.2466586708
C    -3.4856739449   -0.2214334566   -0.3518291042
Br   -5.3329242096    0.2425960130   -0.0921933519
C    -3.1303537027   -1.2914101042   -1.1528720528
C    -1.7988466508   -1.6271489354   -1.3409959084
Br   -1.3045620089   -3.0786542124   -2.4270244969
C    -0.7965585336   -0.8911533712   -0.7253770000
C     0.6124682401   -1.2474994688   -0.9252658935
O     0.9083012320   -2.2259263000   -1.6592779719
C     1.6752625749   -0.4642296059   -0.2703115438
C     3.0117092905   -0.8089493111   -0.4650537539
C     4.0140877431   -0.0854681642    0.1409902836
C     3.6959751966    0.9747164042    0.9364635583
C     2.3736017750    1.3095636894    1.1243721710
C     1.3528281850    0.6040108664    0.5311026958
C    -0.0569279235    0.9418464616    0.7167780226
O    -0.3580591142    1.9050315136    1.4388317306
C    -1.1297292550    0.1816668481    0.0789906781
H    -2.5796391511    1.5502502563    2.0757354657
H    -3.3568056005    2.4070590402    0.6855795062
H    -3.9102882533   -1.8581177061   -1.6273213956
H     3.2092636573   -1.6575779169   -1.1047366402
H     5.0292599091   -0.4113488853   -0.0559655629
H     4.5096204018    1.5190327063    1.3955246607
H     2.1549980049    2.1535804736    1.7594121824


