%chk=208.chk
%nproc=8
%mem=30GB
#P UB3LYP/6-311++G(d,p) nosym opt freq

Oxidized

0 1
O     4.6408019045    1.4900409069   -1.3176747822
C     3.5555279450    0.8970329396   -0.6907521039
C     2.2593540778    1.1302413938   -1.1692088651
C     1.1620404088    0.5552233039   -0.5673544774
C    -0.1845793699    0.8190420597   -1.0924974413
O    -0.2443730692    1.5788849469   -2.0910103034
C    -1.3959855017    0.2438399169   -0.5057547511
C    -2.6624738629    0.4946613760   -1.0031604392
O    -2.8603025803    1.2982157799   -2.0772365705
C    -3.8137971141   -0.0757053064   -0.4146264743
O    -5.0852178958    0.1908479302   -0.9332056241
C    -3.6500362673   -0.8915594912    0.6709026280
O    -4.7975819576   -1.4504157662    1.2449368780
C    -2.3875873647   -1.1484180438    1.1756343646
C    -1.2698880524   -0.5876991974    0.5951502998
C     0.0736573200   -0.8459485118    1.1126185430
O     0.1595146252   -1.6038754726    2.1121487073
C     1.2809843677   -0.2720564285    0.5270369637
C     2.5449438331   -0.5185417724    1.0184588348
O     2.7554740273   -1.3264676752    2.0999517234
C     3.6687005163    0.0779304205    0.3921999681
O     4.9027335474   -0.2122358393    0.9365377868
H     5.5676490378    1.3322740935   -0.9872795172
H     2.1769403784    1.7795613874   -2.0267103704
H    -2.2311729837    1.7758867712   -2.6151818450
H    -5.1197288074    0.8027670600   -1.7355019023
H    -4.7235085493   -2.0639195454    2.0546492050
H    -2.2822286455   -1.7906155894    2.0269340106
H     2.2057715388   -1.8343439753    2.6879968891
H     5.7543684939    0.1553523284    0.5719986649


