%chk=300-rad.chk
%nproc=32
%mem=825GB
#P UB3LYP/6-311++G(d,p) nosym  opt Int=Acc2E=11 freq SCRF=(PCM,Solvent=n,n-DiMethylFormamide)

Radical

-1 2
 C                  0.04189900    4.14648700    0.85087600
 C                 -1.08084800    4.20061800    0.04452900
 C                 -1.08772100    3.53755800   -1.19742800
 C                  1.19061600    3.43215900    0.44600900
 C                  1.18671600    2.76171200   -0.81014100
 C                  0.03127600    2.83233000   -1.61052400
 C                  2.36737700    3.37300100    1.28875700
 C                  3.48859900    2.61406600    0.79391300
 C                  3.52203400    1.95536500   -0.41971600
 C                  2.36319500    2.00151200   -1.27970300
 O                  2.47838400    3.94101700    2.42860100
 O                  2.34284300    1.41902200   -2.40294500
 O                  4.56233300    2.59454300    1.63632600
 C                  4.74055700    1.17890600   -0.85196100
 C                  4.74060700   -0.28894300   -0.37793700
 C                  5.98245700   -1.06408100   -0.83138400
 C                  5.99608200   -2.52659600   -0.37217800
 C                  7.24210200   -3.29878000   -0.82101800
 C                  7.25315700   -4.76428300   -0.37150600
 C                  8.50066500   -5.53274900   -0.82160900
 C                  8.50738100   -7.00065900   -0.37960000
 C                  9.76001800   -7.75850100   -0.83537300
 C                  9.74581400   -9.21339900   -0.39568100
 H                  0.05901300    4.65232200    1.80918100
 H                 -1.95647200    4.75289700    0.36852300
 H                 -1.96840900    3.57919000   -1.82911800
 H                  0.03891600    2.31689000   -2.56341600
 H                  4.26265000    3.13988800    2.39351500
 H                  5.64123200    1.67093400   -0.47128600
 H                  4.79194700    1.19385900   -1.94406800
 H                  3.84031600   -0.78696200   -0.75609500
 H                  4.67438100   -0.31419000    0.71610800
 H                  6.88113100   -0.55865500   -0.45379400
 H                  6.05000600   -1.02895900   -1.92665800
 H                  5.10022000   -3.03321400   -0.75420000
 H                  5.92392700   -2.56248100    0.72267600
 H                  8.13755300   -2.79543600   -0.43372000
 H                  7.31755900   -3.25693400   -1.91543600
 H                  6.35876200   -5.26799900   -0.76057400
 H                  7.17708600   -4.80773700    0.72273800
 H                  9.39510300   -5.03324500   -0.42794500
 H                  8.57947900   -5.48554500   -1.91525300
 H                  7.61431900   -7.50033800   -0.77535900
 H                  8.42877200   -7.04914900    0.71368400
 H                 10.65547700   -7.27456200   -0.43025300
 H                  9.84098200   -7.71949100   -1.92720400
 H                  8.87790600   -9.73673400   -0.81370800
 H                  9.69920900   -9.28880800    0.69708100
 O                 10.95220700   -9.83266300   -0.86814500
 C                 11.16410800  -11.15716000   -0.60132200
 C                 10.28511200  -11.97436600    0.11690400
 C                 12.35403100  -11.70384800   -1.09498000
 C                 10.60642400  -13.31693000    0.33064700
 H                  9.35716700  -11.58387000    0.51253700
 C                 12.65247900  -13.04369600   -0.87267300
 H                 13.03354200  -11.06720400   -1.65030700
 C                 11.78856600  -13.88371400   -0.15558200
 H                  9.90612400  -13.92590400    0.89286600
 H                 13.58037100  -13.44654300   -1.26697500
 C                 12.13061500  -15.34623700    0.06622400
 C                 12.32754900  -15.69317500    1.56989600
 H                 11.62158600  -15.11576300    2.17445200
 H                 13.32903900  -15.36986400    1.87318100
 C                 12.14309500  -17.19928600    1.86837900
 H                 11.09473400  -17.40249300    2.11638300
 H                 12.72550300  -17.47679900    2.75207700
 C                 12.54134600  -18.05994300    0.66409200
 H                 12.49959500  -19.12307300    0.91887400
 H                 13.58535100  -17.84804500    0.40522000
 C                 11.62723200  -17.76886400   -0.54924700
 H                 10.77345900  -18.45435600   -0.54241500
 H                 12.17693300  -17.96991200   -1.47456300
 C                 11.10434200  -16.31303100   -0.56131300
 H                 10.87476300  -16.00545800   -1.58560800
 H                 10.16437900  -16.24728200   -0.00186600
 H                 13.08429100  -15.52351400   -0.44427600



























