%chk=277-rad.chk
%nproc=8
%mem=30GB
#P UB3LYP/6-311++G(d,p) nosym opt freq

Radical

-1 2
C         -0.41238        3.96630        0.10719
C         -1.56887        3.43065        0.67866
C         -1.67814        2.05373        0.87757
C          0.64851        3.12334       -0.27110
C          0.53885        1.73415       -0.07077
C         -0.63141        1.20675        0.50579
C          1.88309        3.67380       -0.87883
C          2.99592        2.76770       -1.26896
C          2.89612        1.42631       -1.08188
C          1.66020        0.84865       -0.47226
O          1.99155        4.87754       -1.06266
O          1.56958       -0.35881       -0.30229
H         -0.34785        5.03734       -0.03845
H         -2.38172        4.08432        0.96774
H         -2.57563        1.64164        1.32060
H         -0.73723        0.14155        0.66889
S          4.47627        3.50364       -2.00669
C          5.23369        3.89627       -0.39905
C          4.02791        0.50742       -1.48928
H          6.23486        4.33692       -0.58252
H          5.37588        2.97401        0.20140
H          4.62216        4.64610        0.14441
H          4.21706        0.60397       -2.57923
H          3.80072       -0.55753       -1.27858
H          4.95102        0.77144       -0.93247







