%chk=164-an-new-pro.chk
%nproc=8
%mem=30GB
#P UB3LYP/6-311++G(d,p) nosym opt freq SCF=YQC

Reduced

-4 1
N                  3.55880346   -1.94984834   -1.73152120
 C                  2.99147046   -0.74806834   -1.38284920
 C                  2.01673046   -0.49864934   -0.38091520
 C                  3.48601246    0.38317466   -2.08939020
 C                  1.58381946    0.80733266   -0.11247020
 C                  3.01908546    1.65776566   -1.84362020
 C                  2.05329046    1.90420866   -0.86491820
 S                  1.50877146    3.62124266   -0.60722220
 O                  0.04411846    3.50576366   -0.27605820
 O                  2.30469046    4.17170666    0.52306680
 O                  1.75946746    4.32156766   -1.89732420
 N                  0.58564946    1.09724966    0.87015680
 C                  0.49331146    0.71181266    2.14693980
 N                  1.35382746   -0.20800734    2.65821880
 C                  1.15697446   -0.46420834    3.92268880
 N                  0.26512946    0.03112666    4.75596380
 C                 -0.54860254    0.94590466    4.14996680
 N                 -0.49078254    1.30927466    2.88419280
 Cl                 2.28022946   -1.63968634    4.65109780
 N                 -1.46517754    1.48421066    5.02684580
 C                 -2.39530254    2.53260866    4.92294280
 C                 -2.60284254    3.28292666    3.75989580
 C                 -3.13958054    2.83650466    6.08222880
 C                 -3.54274354    4.31573166    3.77996680
 C                 -4.06655954    3.86911766    6.08152180
 C                 -4.27749454    4.61965466    4.92196280
 S                 -5.03122754    4.25233466    7.59335080
 O                 -4.45745254    3.38124166    8.65687080
 O                 -4.81552954    5.70889166    7.83022880
 O                 -6.44459854    3.92478666    7.25002180
 H                  4.45833946   -1.88399134   -2.25481620
 H                  1.62401246   -1.31015934    0.21336780
 H                  4.23004046    0.21680166   -2.86136720
 H                  3.37975746    2.49659166   -2.42713020
 H                  0.03270546    1.93284066    0.63286080
 H                 -1.37426754    1.07400266    5.94445780
 H                 -2.03033254    3.06293166    2.87070180
 H                 -2.99264654    2.27499566    6.99904980
 H                 -3.68928654    4.89561966    2.87382680
 H                 -4.99673754    5.42966766    4.92924180
 C                  3.17688546   -3.30324734   -1.69111620
 C                  4.15324446   -4.27350234   -2.14546420
 C                  1.91309146   -3.72978834   -1.29870620
 C                  1.55290146   -5.08231834   -1.30554920
 C                  3.81371446   -5.68448334   -2.07501720
 C                  2.48244746   -6.07859234   -1.66929620
 C                  4.79624246   -6.71260734   -2.40303120
 C                  6.08764746   -6.26623134   -2.90424020
 C                  6.39083246   -4.87906034   -3.04556620
 C                  5.43422146   -3.85119134   -2.69217720
 C                  7.06058146   -7.21835634   -3.29291420
 C                  8.29944646   -6.84361134   -3.77993420
 C                  8.61104646   -5.46489934   -3.89382120
 C                  7.67401646   -4.51674234   -3.53186620
 O                  4.57696046   -7.97173034   -2.28503520
 O                  5.75271446   -2.61081334   -2.87411620
 N                  2.12361246   -7.40213734   -1.67253220
 H                  1.16266446   -3.01591134   -0.98889720
 H                  6.78995946   -8.26337834   -3.19244720
 H                  9.03476946   -7.59284034   -4.07665220
 H                  9.58813546   -5.16337834   -4.27132020
 H                  7.88705446   -3.45677434   -3.61072120
 H                  2.91389246   -8.03624934   -1.78793520
 H                  1.29150746   -7.62858834   -1.13571320
 S                 -0.19596254   -5.48272834   -0.93766520
 O                 -0.16737354   -6.76083534   -0.14009020
 O                 -0.87363654   -5.66581334   -2.25396920
 O                 -0.72077354   -4.32980234   -0.16029820
 H                  2.56055860   -7.62633238   -0.75465657







































































