%chk=292-an.chk
%nproc=8
%mem=30GB
#P UB3LYP/6-311++G(d,p) nosym opt freq SCF=YQC

Reduced

-2 1
C                  0.37740400    1.82786800   -1.26801800
 C                 -0.71570900    1.23970500   -1.87362900
 C                 -0.77045300   -0.16757600   -2.02362000
 C                  1.46152400    1.05282600   -0.78479300
 C                  1.40712300   -0.37941000   -0.93786100
 C                  0.27891400   -0.94559200   -1.55960800
 C                  2.59015900    1.67571600   -0.15473600
 C                  3.62187400    0.79198300    0.29380700
 C                  3.60353000   -0.59270800    0.17061700
 C                  2.49021600   -1.25045000   -0.46348500
 O                  2.74992000    2.94634600    0.04267800
 O                  2.44184000   -2.51637800   -0.59840200
 O                  4.67174000    1.45045000    0.89031100
 H                  0.44071800    2.90401400   -1.14292300
 H                 -1.53466000    1.85692500   -2.23686100
 H                 -1.62937100   -0.63289400   -2.50086800
 H                  0.26761700   -2.02603800   -1.66161200
 H                  4.35468200    2.38348300    0.81443300
 C                  4.73143900   -1.43858900    0.70228800
 C                  5.78850600   -1.78567200   -0.36855800
 C                  6.86729300   -2.78823200    0.11203800
 C                  7.77306700   -3.23888000   -1.02293400
 C                  8.67503800   -2.36053400   -1.64112100
 C                  7.73370900   -4.55717500   -1.49404900
 C                  9.51441200   -2.78204900   -2.66995900
 C                  9.46233500   -4.10373700   -3.10304900
 C                  8.56534900   -4.99446400   -2.52474900
 H                  4.30330800   -2.37854700    1.07096300
 H                  5.20801200   -0.91793800    1.53779300
 H                  6.27178000   -0.86312600   -0.71276700
 H                  5.26822500   -2.21759400   -1.22797100
 H                  6.33460900   -3.68036200    0.46449600
 C                  7.69200300   -2.24597600    1.29645400
 H                  8.71896100   -1.32580000   -1.31972100
 H                  7.02969700   -5.25386800   -1.05011100
 H                  8.52050900   -6.01624800   -2.88457900
 O                 10.24759600   -4.50385700   -4.18371100
 C                 11.45316400   -5.13511700   -3.96665100
 C                 12.00668300   -5.34729700   -2.70319700
 C                 12.13176200   -5.56226000   -5.11248800
 C                 13.36027200   -6.20099800   -4.99046500
 C                 13.24160000   -5.99093500   -2.59832200
 C                 13.92359600   -6.42090400   -3.73253700
 H                 10.20484200   -2.09500900   -3.14617800
 H                  7.04839600   -2.04463700    2.15496300
 H                  8.19099200   -1.30731100    1.03552400
 H                  8.46043500   -2.96322900    1.60342000
 H                 11.48176800   -5.01461100   -1.81661300
 H                 11.68190500   -5.38516300   -6.08355900
 H                 13.88343900   -6.53213800   -5.88440000
 H                 13.67149400   -6.15557600   -1.61391500
 H                 14.88305700   -6.92189200   -3.64165900


