%chk=129-rad.chk
%nproc=8
%mem=30GB
#P UB3LYP/6-311++G(d,p) nosym opt freq

Radical

-1 2
C    -3.7669101605    1.6641121261   -0.3475157229
C    -2.5259264704    0.8811872097   -0.1380932860
C    -1.3014950647    1.4379559117   -0.4617103483
C    -0.1574821211    0.6667818144   -0.2489335470
C     1.1639214547    1.1963033595   -0.5697263484
O     1.2317675209    2.3493837204   -1.0353281208
C     2.3739249030    0.4102746978   -0.3564998711
C     3.6261797520    0.8928020096   -0.6528233792
C     4.7841430733    0.1697900771   -0.4604229958
C     4.7042418843   -1.1069637116    0.0555121254
C     3.4550114404   -1.6079797111    0.3589590765
C     2.2857624593   -0.8677741921    0.1606384968
C     0.9766845077   -1.4094783984    0.4852672192
O     0.8577719936   -2.5679776511    0.9572693855
C    -0.2314040060   -0.6113087041    0.2670356504
C    -1.4913395956   -1.1363880400    0.5809572666
C    -2.6239377017   -0.3795240630    0.3729397142
C    -3.9466165858   -0.9304718060    0.7023768053
H    -3.5669434606    2.7003100185    0.0230176337
H    -3.9608311984    1.7442337401   -1.4374191279
H    -4.6179403200    1.2887967354    0.2314559665
H    -1.2348064989    2.4320896540   -0.8638113983
H     3.6852366228    1.9040322635   -1.0611178377
H     5.7725754409    0.5442691322   -0.6917589704
H     5.6023853121   -1.7051966991    0.2196796446
H     3.3580286464   -2.6008641506    0.7630778563
H    -1.5586028288   -2.1487142700    0.9903567409
H    -4.4061190671   -0.4731145560    1.5910755922
H    -4.6129426642   -0.7094560803   -0.1802291400
H    -3.8743372673   -2.0271104368    0.7457709196


