%chk=190-rad-PCM.chk
%nproc=8
%mem=30GB
#P UB3LYP/6-311++G(d,p) SCRF=(PCM,Solvent=n,n-DiMethylFormamide)

Radical PCM in DMF 

-2 2
O                  1.5113960000     -2.8846050000     -0.5579250000
C                  1.4723840000     -1.5444020000     -0.2744440000
C                  2.7126640000     -0.9154410000     -0.1188330000
O                  3.8080610000     -1.7229460000     -0.2690180000
C                  2.7905880000      0.4637650000      0.1489500000
C                  1.6204950000      1.1908370000      0.2624550000
C                  0.3597240000      0.5826680000      0.1224960000
C                 -0.8256250000      1.4419930000      0.2614820000
O                 -0.7353920000      2.6737160000      0.4990220000
C                 -2.1214060000      0.7908180000      0.1063420000
C                 -3.3042630000      1.5565120000      0.2211450000
C                 -4.5517500000      0.9817580000      0.0820660000
C                 -4.6580350000     -0.4063650000     -0.1820240000
C                 -3.5151340000     -1.1724640000     -0.2981190000
C                 -2.2262810000     -0.6068290000     -0.1606490000
C                 -1.0538840000     -1.4776500000     -0.2954580000
O                 -1.1994780000     -2.7048950000     -0.5217260000
C                  0.2574740000     -0.8259450000     -0.1496950000
S                  4.4131860000      1.2544020000      0.4158660000
O                  5.3641330000      0.3009930000     -0.2879370000
O                  4.3651190000      2.5855080000     -0.2245920000
O                  4.6425650000      1.2818930000      1.8800470000
H                  2.4568930000     -3.0909500000     -0.6153890000
H                  4.6021120000     -1.1094000000     -0.3074350000
H                  1.6517650000      2.2548660000      0.4568520000
H                 -3.1867530000      2.6154850000      0.4241770000
H                 -5.4485880000      1.5894950000      0.1743360000
H                 -5.6373650000     -0.8658490000     -0.2926290000
H                 -3.5646040000     -2.2369680000     -0.4993680000





