%chk=190-rad.chk
%nproc=8
%mem=30GB
#P UB3LYP/6-311++G(d,p) nosym  opt freq

Radical

-2 2
O                  1.5113210000     -2.8845600000     -0.5578910000
C                  1.4723400000     -1.5443480000     -0.2743540000
C                  2.7125540000     -0.9153900000     -0.1188880000
O                  3.8078610000     -1.7228690000     -0.2693320000
C                  2.7905790000      0.4636920000      0.1491500000
C                  1.6205340000      1.1908040000      0.2628000000
C                  0.3597400000      0.5827040000      0.1227150000
C                 -0.8256500000      1.4420740000      0.2611710000
O                 -0.7354300000      2.6735870000      0.4997150000
C                 -2.1214600000      0.7908490000      0.1062510000
C                 -3.3043050000      1.5565430000      0.2209410000
C                 -4.5517450000      0.9817210000      0.0818660000
C                 -4.6580400000     -0.4064170000     -0.1821150000
C                 -3.5151210000     -1.1724920000     -0.2980650000
C                 -2.2262880000     -0.6068210000     -0.1605690000
C                 -1.0538210000     -1.4776760000     -0.2949350000
O                 -1.1991740000     -2.7048140000     -0.5219060000
C                  0.2574910000     -0.8258920000     -0.1494910000
S                  4.4133370000      1.2542300000      0.4157950000
O                  5.3644120000      0.3009260000     -0.2879430000
O                  4.3652140000      2.5852760000     -0.2247810000
O                  4.6428390000      1.2818760000      1.8799710000
H                  2.4568030000     -3.0910250000     -0.6153360000
H                  4.6014670000     -1.1088570000     -0.3079330000
H                  1.6518510000      2.2548430000      0.4571670000
H                 -3.1868040000      2.6155540000      0.4238100000
H                 -5.4485850000      1.5894660000      0.1740270000
H                 -5.6373560000     -0.8659450000     -0.2927150000
H                 -3.5645630000     -2.2370390000     -0.4991270000


