%chk=104.chk
%nproc=8
%mem=30GB
#P UB3LYP/6-311++G(d,p) nosym opt freq

Oxidized

0 1
C         -2.33137       -2.31491        4.93889
C         -1.23249       -3.22101        4.46220
C         -1.04292       -3.31884        3.13578
C         -1.84486       -2.59415        2.13827
C         -2.91061       -1.71522        2.62552
C         -3.16841       -1.55826        3.92717
O         -2.57894       -2.16300        6.13467
O         -1.62615       -2.72321        0.94049
N         -4.15287       -0.75077        4.47712
C         -5.12515        0.11159        3.83670
C         -6.52779       -0.37098        4.19332
C         -4.90524        1.54502        4.31060
H         -3.47107       -1.20500        1.85430
H         -4.16640       -0.78911        5.50143
H         -5.02112        0.09070        2.74705
H         -7.28883        0.26143        3.72446
H         -6.69335       -0.35684        5.27654
H         -6.68312       -1.39948        3.84921
H         -5.62569        2.22496        3.84415
H         -3.89788        1.88886        4.05105
H         -5.01256        1.62877        5.39800
C         -0.39450       -3.97840        5.51374
C         -1.29019       -4.91619        6.35121
C          0.70210       -4.87445        4.88016
C          0.33892       -2.98706        6.44241
H         -0.27757       -3.94479        2.69243
H         -2.01088       -4.37177        6.96817
H         -0.68952       -5.52527        7.03735
H         -1.85337       -5.60217        5.70760
H          1.27954       -5.39842        5.65166
H          1.41567       -4.28472        4.29280
H          0.26910       -5.64265        4.22875
H         -0.34728       -2.40185        7.06135
H          0.94932       -2.28322        5.86450
H          1.00796       -3.51522        7.13233











