%chk=125-an-PCM.chk
%nproc=8
%mem=30GB
#P UB3LYP/6-311++G(d,p) SCRF=(PCM,Solvent=n,n-DiMethylFormamide)

Reduced 

-2 1
C                 -4.8490740000     -0.2079160000     -0.4454960000
C                 -3.9489750000     -0.5184250000      0.7667940000
C                 -2.5360040000      0.0020130000      0.6601280000
C                 -2.2601290000      1.3924760000      0.8324130000
C                 -0.9676220000      1.8647770000      0.7641600000
C                  0.1388580000      1.0129220000      0.5191960000
C                  1.4716510000      1.5760000000      0.4514730000
O                  1.7079060000      2.8247790000      0.5993260000
C                  2.5294070000      0.6090830000      0.2079820000
C                  3.8710960000      1.0573000000      0.1263560000
C                  4.9227290000      0.1922660000     -0.1001700000
C                  4.6678000000     -1.1972450000     -0.2599680000
C                  3.3710780000     -1.6650540000     -0.1840890000
C                  2.2706750000     -0.8039060000      0.0479800000
C                  0.9319140000     -1.3666190000      0.1152890000
O                  0.7076070000     -2.6155760000     -0.0278530000
C                 -0.1249520000     -0.3980890000      0.3541260000
C                 -1.4665090000     -0.8452240000      0.4289340000
H                 -4.4446230000     -0.6600840000     -1.3567010000
H                 -5.8665780000     -0.5950320000     -0.2938500000
H                 -4.9252740000      0.8713950000     -0.6154950000
H                 -4.4335730000     -0.0985890000      1.6638330000
H                 -3.9208580000     -1.6050540000      0.9121780000
H                 -3.0818890000      2.0806400000      1.0245500000
H                 -0.7474640000      2.9192700000      0.8985940000
H                  4.0322190000      2.1234000000      0.2527400000
H                  5.9418490000      0.5703090000     -0.1575360000
H                  5.4906440000     -1.8864910000     -0.4400690000
H                  3.1429920000     -2.7199580000     -0.3010450000
H                 -1.6248990000     -1.9133660000      0.3079200000





