%chk=058-an.chk
%nproc=8
%mem=30GB
#P UB3LYP/6-311++G(d,p) nosym opt freq

Reduced

-2 1
C         -0.54086        1.05334       -0.27509
C         -1.51599        0.08966       -0.83381
C         -1.30438       -1.23445       -0.74562
C         -0.07531       -1.72871       -0.07831
C          0.90438       -0.77001        0.48295
C          0.70798        0.56831        0.40352
O         -0.77634        2.24720       -0.37929
O          0.13673       -2.92836        0.01272
C          1.69248        1.56194        0.96829
C          2.97780        1.19834        1.67015
O          1.45398        2.75548        0.86223
H         -2.41021        0.47234       -1.31883
H          3.17361        0.11752        1.75515
H          2.95953        1.61522        2.69907
H          3.83097        1.64903        1.12080
C         -2.29834       -2.21293       -1.31495
H          1.77514       -1.19963        0.95409
H         -3.16598       -1.69969       -1.78243
H         -2.67662       -2.87099       -0.50481
H         -1.80327       -2.83689       -2.08827








