%chk=058-PCM.chk
%nproc=8
%mem=30GB
#P UB3LYP/6-311++G(d,p) SCRF=(PCM,Solvent=n,n-DiMethylFormamide)

Quinone PCM in DMF 

0 1
C                 -0.3479110000      0.7320900000      0.4395880000
C                 -1.4425130000     -0.1387450000     -0.0445970000
C                 -1.2403400000     -1.2984660000     -0.6941600000
C                  0.1670630000     -1.7380070000     -0.9451000000
C                  1.2692740000     -0.8713540000     -0.4605270000
C                  1.0593410000      0.2778410000      0.2048730000
O                 -0.6068250000      1.7923630000      0.9877190000
O                  0.4115540000     -2.7791890000     -1.5311040000
C                  2.2700440000      1.0643680000      0.6829820000
C                  2.1591760000      1.9149630000      1.9220480000
O                  3.3120410000      0.9512410000      0.0719900000
H                 -2.4401970000      0.2384390000      0.1558740000
H                  1.5310120000      2.7849890000      1.7193370000
H                  3.1582160000      2.2283900000      2.2222470000
H                  1.6708560000      1.3665380000      2.7324080000
C                 -2.3364890000     -2.1857610000     -1.1955340000
H                  2.2761340000     -1.2174440000     -0.6676410000
H                 -3.3168990000     -1.7720030000     -0.9579470000
H                 -2.2520660000     -3.1839620000     -0.7570210000
H                 -2.2561690000     -2.3195700000     -2.2778740000





