%chk=311.chk
%nproc=8
%mem=30GB
#P UB3LYP/6-311++G(d,p) nosym opt freq

Oxidized

0 1
C         -4.94700        0.01029       -4.05866
C         -4.11188       -0.00853       -5.16967
C         -2.72942       -0.03315       -5.02156
C         -4.37900        0.00416       -2.77702
C         -2.99838       -0.02044       -2.61311
C         -2.16891       -0.03918       -3.74263
C         -5.25201        0.02395       -1.60086
C         -4.63047        0.01703       -0.24860
C         -3.29987       -0.00678       -0.06465
C         -2.40012       -0.02704       -1.26380
O         -6.47616        0.04596       -1.69434
O         -1.17983       -0.04894       -1.14257
O         -5.52984        0.03689        0.80265
O         -4.61315       -0.00359       -6.43613
C         -2.53919       -0.01668        1.25067
C         -3.33454        0.00255        2.56076
C         -2.41211       -0.01200        3.78430
C         -3.22864        0.00852        5.07768
C         -2.33389       -0.00908        6.31783
C         -3.17579        0.01214        7.59500
C         -2.30336       -0.00847        8.85071
C         -3.16427        0.01298       10.11535
C         -2.30642       -0.00987       11.38096
C         -3.17658        0.01172       12.63782
C         -2.33304       -0.01200       13.90219
H         -6.02778        0.02956       -4.17275
H         -2.08817       -0.04766       -5.89967
H         -1.08577       -0.05852       -3.63286
H         -6.41960        0.05172        0.38704
H         -5.58451        0.01408       -6.39855
H         -1.86692        0.85207        1.25587
H         -1.89995       -0.90996        1.26158
H         -3.99419       -0.87220        2.60747
H         -3.95984        0.90244        2.60226
H         -1.74480        0.85774        3.75490
H         -1.78035       -0.90805        3.76037
H         -3.89982       -0.85890        5.09954
H         -3.86084        0.90481        5.09614
H         -1.66399        0.85903        6.30248
H         -1.70362       -0.90644        6.30569
H         -3.84896       -0.85393        7.60354
H         -3.80614        0.90987        7.60244
H         -1.63142        0.85825        8.84721
H         -1.67445       -0.90691        8.84790
H         -3.83847       -0.85228       10.11429
H         -3.79314        0.91173       10.11520
H         -1.63280        0.85564       11.38477
H         -1.67831       -0.90898       11.38363
H         -3.85027       -0.85314       12.63916
H         -3.80366        0.91093       12.64107
H         -1.71763       -0.91619       13.94630
H         -2.97684        0.00417       14.78722
H         -1.67045        0.85810       13.94815








