%chk=108-PCM.chk
%nproc=8
%mem=30GB
#P UB3LYP/6-311++G(d,p) SCRF=(PCM,Solvent=n,n-DiMethylFormamide)

Quinone PCM in DMF 

0 1
C                 -1.7480460000     -3.7197970000      1.2984710000
C                 -0.3208420000     -3.9766060000      1.0488980000
C                  0.4573230000     -2.9906530000      0.5900680000
C                 -0.0783770000     -1.6202200000      0.3183040000
C                 -1.5079370000     -1.3418070000      0.5621360000
C                 -2.2826210000     -2.3500090000      1.0269190000
O                 -2.5201460000     -4.5719270000      1.7176000000
O                  0.6813050000     -0.7585130000     -0.1009210000
O                 -3.5933950000     -2.2105100000      1.2841470000
C                 -2.0207290000      0.0385370000      0.2827110000
H                  0.0391260000     -4.9779920000      1.2544530000
H                  1.5144140000     -3.1224850000      0.3884950000
H                 -1.4862750000      0.7756720000      0.8885110000
H                 -3.0864860000      0.1092210000      0.4942640000
H                 -1.8440470000      0.3084610000     -0.7621020000
H                 -3.9062990000     -3.0771430000      1.6031750000





