%chk=122-rad.chk
%nproc=8
%mem=30GB
#P UB3LYP/6-311++G(d,p) nosym  opt freq

Radical

-1 2
Cl                -2.5353000000      2.7775380000      1.8035480000
C                 -2.4085200000      1.1865200000      1.0312320000
C                 -3.6094730000      0.5067250000      0.9433600000
C                 -3.6611660000     -0.7670890000      0.3529290000
C                 -2.5075420000     -1.3323690000     -0.1383140000
C                 -1.2742560000     -0.6531310000     -0.0576640000
C                 -0.1047250000     -1.3330690000     -0.6070100000
O                 -0.1945690000     -2.4742310000     -1.1279590000
C                  1.1731610000     -0.6316360000     -0.5273990000
C                  2.3003660000     -1.2899700000     -1.0611230000
C                  3.5441730000     -0.7037360000     -1.0296200000
C                  3.6932800000      0.5706960000     -0.4573840000
C                  2.5984700000      1.2302470000      0.0710200000
Cl                 2.9754220000      2.8255250000      0.7472160000
C                  1.2906150000      0.6683540000      0.0647240000
C                  0.1084510000      1.3566310000      0.6270480000
O                  0.1990540000      2.4801130000      1.1504520000
C                 -1.1863660000      0.6467050000      0.5398720000
H                 -4.5053810000      0.9714710000      1.3358360000
H                 -4.6093370000     -1.2913730000      0.2897280000
H                 -2.4988650000     -2.3109300000     -0.6020540000
H                  2.1374600000     -2.2699560000     -1.4922050000
H                  4.4104460000     -1.2118930000     -1.4410070000
H                  4.6626030000      1.0518570000     -0.4224260000





