%chk=063-an.chk
%nproc=8
%mem=30GB
#P UB3LYP/6-311++G(d,p) nosym opt freq SCRF=(PCM,Solvent=n,n-DiMethylFormamide)

Reduced

-2 1
C                 -1.0484710000     -2.2477170000      1.2618910000
C                 -1.8151780000     -2.1123770000      0.0373080000
C                 -1.9173410000     -0.9488050000     -0.6658460000
C                 -1.2309380000      0.2759020000     -0.2988440000
C                 -0.3840690000      0.1679090000      0.8663780000
C                 -0.4165300000     -1.0309670000      1.7165940000
O                 -1.0484310000     -3.3826800000      1.8661540000
O                 -1.3677000000      1.3082260000     -1.0530850000
H                 -2.5163250000     -0.8931520000     -1.5744980000
C                  0.4149390000     -2.0991810000      3.8650880000
C                 -0.1140900000      0.2463100000      3.8726220000
C                  0.7339980000     -2.0202250000      5.2180200000
C                  0.6375530000     -0.8156160000      5.9237720000
C                  0.2019860000      0.3169240000      5.2231750000
H                 -2.3404980000     -3.0109110000     -0.2854990000
H                  0.4567800000     -3.0452790000      3.3450940000
H                 -0.4598650000      1.1392500000      3.3673790000
H                  1.0643980000     -2.9212400000      5.7333690000
H                  0.8895320000     -0.7596340000      6.9799580000
H                  0.1027050000      1.2696370000      5.7402320000
C                  0.6615540000      1.1816230000      1.0392890000
C                  0.5108090000      2.5303310000      0.6084840000
C                  1.9361030000      0.8569960000      1.5830440000
C                  1.5388380000      3.4612830000      0.7307130000
C                  2.9585040000      1.7898830000      1.6983380000
C                  2.7792220000      3.1144340000      1.2780760000
H                 -0.4268620000      2.8047240000      0.1472570000
H                  2.1155240000     -0.1606070000      1.9062760000
H                  1.3673400000      4.4813040000      0.3890690000
H                  3.9132090000      1.4786250000      2.1184860000
H                  3.5779210000      3.8461010000      1.3724260000
C                 -0.0174570000     -0.9615220000      3.1261020000


