%chk=260-an.chk
%nproc=8
%mem=30GB
#P UB3LYP/6-311++G(d,p) nosym opt freq SCRF=(PCM,Solvent=n,n-DiMethylFormamide)

Reduced

-2 1
 C                 -2.75235600   -2.17047600    0.58445200
 O                 -2.32218100   -1.37713000   -0.51886600
 C                 -1.08107700   -0.76093300   -0.32797800
 C                 -1.06477100    0.50048900    0.33469800
 O                 -2.28527600    0.96340100    0.83678200
 C                 -2.82649000    2.06527600    0.10943400
 C                  0.10676500    1.26192500    0.54984400
 O                  0.11915700    2.41936900    1.17861600
 C                  1.31328400    0.65294500    0.01475300
 C                  2.55917000    1.31894900    0.15687600
 C                  3.73802600    0.78975300   -0.33066900
 C                  3.72230600   -0.46129300   -0.99588600
 C                  2.52865600   -1.14025600   -1.14540200
 C                  1.29832600   -0.62803300   -0.65615300
 C                  0.07445100   -1.39241700   -0.84419100
 O                  0.06463000   -2.55883600   -1.45443200
 H                 -2.01451400   -2.94367900    0.82607000
 H                 -2.92671900   -1.54874100    1.46940600
 H                 -3.68974000   -2.64985300    0.29244900
 H                 -2.13016100    2.90804800    0.11147000
 H                 -3.75445600    2.35448200    0.60830900
 H                 -3.05235300    1.77540200   -0.92451300
 H                  2.55605300    2.27538600    0.66835200
 H                  4.67266800    1.32890600   -0.20701100
 H                  4.64468700   -0.88296500   -1.38429200
 H                  2.50191400   -2.09972000   -1.65061800













