%chk=218-rad.chk
%nproc=8
%mem=30GB
#P UB3LYP/6-311++G(d,p) nosym opt freq

Radical

-1 2
C          5.04793       -2.26702        0.39080
C          5.81659       -1.44418       -0.43502
C          5.19795       -0.63402       -1.38697
C          3.64565       -2.28715        0.27107
C          3.01940       -1.46668       -0.69239
C          3.80773       -0.64268       -1.51738
C          2.82405       -3.16190        1.14641
C          1.34488       -3.17697        1.00857
C          0.71912       -2.35601        0.04590
C          1.54038       -1.47950       -0.82802
C          0.55730       -4.00534        1.82968
C         -0.68212       -2.37855       -0.07661
C         -1.45141       -3.20508        0.74410
O          3.36673       -3.87215        1.98144
O          0.99776       -0.76810       -1.66211
H          5.55052       -2.88741        1.12226
H         -2.52859       -3.21194        0.63586
H          3.34993       -0.00534       -2.26353
H          1.02324       -4.64161        2.57153
H         -1.18407       -1.75778       -0.80817
C         -0.83498       -4.01890        1.69752
H          5.79681        0.00238       -2.02570
H          6.89448       -1.43499       -0.33663
S         -1.82799       -5.08246        2.74472
O         -2.32581       -6.34850        2.03107
O         -3.13895       -4.41129        3.18270
N         -1.09411       -5.64792        4.24893
H         -0.39056       -6.38050        4.00528
H         -1.84022       -6.10026        4.82351







