%chk=104-rad-PCM.chk
%nproc=8
%mem=30GB
#P UB3LYP/6-311++G(d,p) SCRF=(PCM,Solvent=n,n-DiMethylFormamide)

Radical PCM in DMF 

-1 2
C                 -2.1767190000     -2.1014920000      4.9811520000
C                 -1.2991420000     -3.1441910000      4.4844160000
C                 -1.2403990000     -3.3830210000      3.1268500000
C                 -2.0101080000     -2.6529800000      2.1370340000
C                 -2.8681570000     -1.6114520000      2.6407180000
C                 -2.9402850000     -1.3321990000      3.9851810000
O                 -2.3357830000     -1.8164960000      6.2143430000
O                 -1.9220190000     -2.9249490000      0.9044630000
N                 -3.6980260000     -0.3121040000      4.5474640000
C                 -4.8840240000      0.2420160000      3.9203050000
C                 -6.0530540000     -0.7592700000      3.8422310000
C                 -5.2919780000      1.5178380000      4.6641670000
H                 -3.4412280000     -1.0539230000      1.9067870000
H                 -3.7153390000     -0.4183820000      5.5596750000
H                 -4.6132470000      0.5244380000      2.8962250000
H                 -6.8987640000     -0.3394480000      3.2850220000
H                 -6.3989980000     -1.0187640000      4.8487410000
H                 -5.7341620000     -1.6771950000      3.3442920000
H                 -6.1713770000      1.9771960000      4.2021060000
H                 -4.4740890000      2.2425400000      4.6626250000
H                 -5.5417190000      1.2917330000      5.7072770000
C                 -0.4680500000     -3.9585280000      5.4946800000
C                 -1.4111680000     -4.7000930000      6.4731410000
C                  0.4203310000     -5.0142330000      4.8093650000
C                  0.4585340000     -3.0115020000      6.2951760000
H                 -0.6013200000     -4.1551830000      2.7162050000
H                 -2.0450630000     -3.9884680000      7.0017890000
H                 -0.8272170000     -5.2729250000      7.2052340000
H                 -2.0512510000     -5.4011960000      5.9272410000
H                  0.9900090000     -5.5584150000      5.5710010000
H                  1.1348340000     -4.5577970000      4.1182400000
H                 -0.1720780000     -5.7436600000      4.2495450000
H                 -0.1291290000     -2.2572260000      6.8181460000
H                  1.1584610000     -2.5051170000      5.6222480000
H                  1.0442050000     -3.5811830000      7.0282930000





