%chk=180-rad-PCM.chk
%nproc=8
%mem=30GB
#P UB3LYP/6-311++G(d,p) SCRF=(PCM,Solvent=n,n-DiMethylFormamide)

Radical PCM in DMF 

-1 2
C                 -1.5612120000      1.9039960000     -4.7410860000
C                 -1.5101650000      0.5445320000     -4.9704560000
C                 -1.2289750000     -0.3395530000     -3.9059060000
C                 -1.3374190000      2.4304840000     -3.4486600000
C                 -1.0560940000      1.5434180000     -2.3768470000
C                 -1.0058450000      0.1571620000     -2.6371350000
C                 -1.3960460000      3.8627950000     -3.2328540000
C                 -0.8081110000      2.0202290000     -1.0115700000
C                 -1.1772220000      4.3564310000     -1.8884170000
C                 -0.8964990000      3.4694440000     -0.7929980000
C                 -1.2619740000      5.7674060000     -1.6577800000
C                 -1.0834820000      6.2802550000     -0.3804960000
C                 -0.8184170000      5.4144580000      0.6861890000
C                 -0.7257960000      4.0538380000      0.4851050000
O                 -1.6426650000      4.6593210000     -4.2055380000
O                 -0.5341920000      1.2039010000     -0.0986370000
H                 -1.7726130000      2.6053260000     -5.5393460000
H                 -1.6842890000      0.1536170000     -5.9683600000
H                 -1.1868170000     -1.4093200000     -4.0868860000
H                 -0.7840770000     -0.4982520000     -1.8034230000
H                 -0.6844600000      5.7989810000      1.6909150000
O                 -1.5214610000      6.6156370000     -2.6707150000
O                 -0.5589980000      3.2613790000      1.6302350000
C                  0.6483120000      2.6748770000      1.8558340000
C                  0.5062240000      1.5865210000      2.8862550000
O                  1.6755950000      3.0083620000      1.3251770000
H                 -1.1547390000      7.3512960000     -0.2324430000
H                 -1.6191010000      6.0221610000     -3.4862650000
H                  0.0503900000      0.7319540000      2.3809320000
H                 -0.1558380000      1.8994500000      3.6961310000
H                  1.4868480000      1.3127940000      3.2733840000





