%chk=307.chk
%nproc=8
%mem=30GB
#P UB3LYP/6-311++G(d,p) nosym opt freq

Oxidized

0 1
C    -3.4429894160   -0.7403530965   -0.3812875814
C    -2.0440294748   -0.2997008750   -0.0856100271
C    -1.7798205316    0.6283858672    0.8118742705
C    -0.4137685043    1.0675312796    1.1094140117
O    -0.2094824891    1.9613678485    1.9789186890
C     0.7391639443    0.5015133937    0.4274539244
C     2.0195168682    0.9236199373    0.7167713167
O     2.3765439759    1.8717627964    1.6247225474
C     3.0760647825    0.3227484222    0.0099401655
C     2.8176496768   -0.6450219963   -0.9276654935
C     1.5161154486   -1.0509792467   -1.1987295470
C     0.4606637708   -0.4776463862   -0.5194435302
C    -0.9151939712   -0.8924790062   -0.7917597463
O    -1.1433007091   -1.7758555762   -1.6484032633
H    -4.1812674685    0.0329907613   -0.1117170642
H    -3.6275890674   -1.7213012333    0.0970849827
H    -3.5752843987   -0.9207422827   -1.4857766051
H    -2.5945752383    1.0973409711    1.3625034239
H     1.8753569947    2.4363414760    2.2385137487
H     4.0999843189    0.6018188135    0.1830126019
H     3.6506196389   -1.1044407398   -1.4706688713
H     1.2956218495   -1.8169011279   -1.9391479529


