%chk=236-rad.chk
%nproc=8
%mem=30GB
#P UB3LYP/6-311++G(d,p) nosym  opt freq

Radical

-1 2
C                 -3.2308760000      0.0621390000      1.0036610000
C                 -1.8857310000     -0.0059610000      0.3299500000
C                 -1.7711270000     -0.2295840000     -1.0284970000
C                 -0.5235680000     -0.3077620000     -1.7366490000
O                 -0.4560770000     -0.5137760000     -2.9790750000
C                  0.6854350000     -0.1301090000     -0.9112850000
C                  1.9594150000     -0.1882520000     -1.5085120000
C                  3.1091560000     -0.0246260000     -0.7563100000
C                  3.0126190000      0.2043780000      0.6307630000
C                  1.7700000000      0.2649390000      1.2359570000
C                  0.5866080000      0.1008480000      0.4876380000
C                 -0.7187790000      0.1713920000      1.1659880000
O                 -0.8102260000      0.3762890000      2.4085990000
H                 -4.0405520000     -0.0602990000      0.2787770000
H                 -3.3247590000     -0.7123880000      1.7731640000
H                 -3.3602510000      1.0173120000      1.5241400000
H                 -2.6656470000     -0.3594070000     -1.6336020000
H                  2.0006280000     -0.3657850000     -2.5775250000
H                  4.0847920000     -0.0722110000     -1.2317450000
H                  3.9138720000      0.3331480000      1.2236080000
H                  1.6650670000      0.4397140000      2.3009540000


