%chk=297-rad-PCM.chk
%nproc=8
%mem=30GB
#P UB3LYP/6-311++G(d,p) SCRF=(PCM,Solvent=n,n-DiMethylFormamide)

Radical PCM in DMF 

-1 2
C                 -0.8439240000      2.7826340000      0.3480160000
C                 -1.5106560000      2.8853880000     -0.8584420000
C                 -0.9988580000      2.2477690000     -2.0050400000
C                  0.3536590000      2.0414180000      0.4491550000
C                  0.8711820000      1.3975730000     -0.7069040000
C                  0.1749960000      1.5160140000     -1.9210820000
C                  1.0483770000      1.9337550000      1.7139000000
C                  2.2672980000      1.1517350000      1.7355010000
C                  2.7939620000      0.5172860000      0.6184100000
C                  2.1270700000      0.6029660000     -0.6711070000
O                  0.6682170000      2.4671090000      2.8062530000
O                  2.5535510000      0.0438840000     -1.6995950000
O                  2.8475660000      1.0984490000      2.9525210000
H                 -1.2183870000      3.2640000000      1.2440800000
H                 -2.4308470000      3.4586250000     -0.9228510000
H                 -1.5237560000      2.3291200000     -2.9518520000
H                  0.5923610000      1.0137050000     -2.7861090000
H                  2.2297950000      1.6385230000      3.4966470000
S                  4.3626160000     -0.3179090000      0.7299800000
C                  3.9560210000     -2.0533590000      0.8056690000
C                  2.6515530000     -2.5528350000      0.8500800000
C                  5.0204070000     -2.9653330000      0.8408230000
C                  2.4260530000     -3.9249790000      0.9257000000
C                  4.7809130000     -4.3334730000      0.9182540000
C                  3.4787790000     -4.8445330000      0.9591300000
C                  3.2212180000     -6.3326730000      1.0020610000
H                  1.8164060000     -1.8642940000      0.8239810000
H                  6.0415960000     -2.5986970000      0.8090500000
H                  1.4013730000     -4.2855030000      0.9589330000
H                  5.6258370000     -5.0166970000      0.9472530000
H                  4.0187130000     -6.8612440000      1.5327760000
H                  3.1620560000     -6.7612950000     -0.0060390000
H                  2.2771150000     -6.5586690000      1.5058450000





