%chk=192-opt-pro.chk
%nproc=8
%mem=30GB
#P UB3LYP/6-311++G(d,p) nosym opt freq

Oxidized

0 2
 C                  5.42805239   -3.65103466   -2.95984487
 O                  4.62140739   -2.73269666   -2.25489487
 C                  5.19085539   -1.96239166   -1.28415387
 C                  6.53884239   -2.06110066   -0.96947387
 C                  7.09761439   -1.25178866    0.03749213
 C                  6.31140239   -0.35364466    0.71943513
 C                  4.93840739   -0.23046966    0.42389913
 C                  4.18227739    0.76679434    1.21115913
 O                  4.77504639    1.44810634    2.07051613
 C                  2.75124639    0.89396234    0.91952013
 C                  1.91759639    1.81554334    1.60854013
 O                  2.47787939    2.61804834    2.57699313
 C                  0.56069439    1.93573234    1.30857213
 C                 -0.26783061    3.02294934    1.96421013
 C                 -1.44129661    3.44269834    1.08156113
 O                 -2.18675661    4.42840734    1.83126013
 C                 -2.29391361    2.21804534    0.78049513
 C                 -1.52227061    1.11050234    0.04743913
 O                 -2.13812261   -0.15138966    0.44472613
 C                 -2.73310061   -0.88632666   -0.56162687
 C                 -2.92504861   -2.31941866   -0.08336587
 C                 -3.74206661   -3.15122266   -1.09730887
 N                 -3.00549661   -3.55132366   -2.31060187
 C                 -5.02278961   -2.38500466   -1.49841987
 O                 -5.94448561   -2.33276966   -0.40605187
 C                 -4.66605961   -0.96393566   -1.96384187
 C                 -5.86015861   -0.12722766   -2.39642287
 O                 -4.02269861   -0.29229466   -0.87233487
 C                 -0.04008961    1.08350834    0.35031913
 C                  0.75977539    0.18714634   -0.35994687
 O                  0.18942039   -0.57679766   -1.30891387
 C                  2.16070839    0.07746134   -0.09570987
 C                  2.92594639   -0.88896266   -0.87076487
 O                  2.33252039   -1.58430566   -1.77243587
 C                  4.34179439   -1.03515366   -0.58910987
 C                 -1.02476361    4.18658834   -0.20975987
 O                 -1.74246461    4.17591334   -1.19245487
 C                  0.22976939    5.04069334   -0.22345487
 O                  0.30898839    5.81733434   -1.39641587
 H                  4.76222139   -4.13943266   -3.67170187
 H                  5.86421339   -4.40845866   -2.29564087
 H                  6.23693839   -3.15050466   -3.50768487
 H                  7.17386039   -2.76059966   -1.49537787
 H                  8.15450439   -1.34502066    0.26717913
 H                  6.70999539    0.28460634    1.49705113
 H                  1.77038039    3.00193834    3.10206913
 H                  0.34190339    3.90492634    2.18607313
 H                 -0.70333061    2.70070934    2.91973613
 H                 -3.02435961    4.57156034    1.37432513
 H                 -3.17770061    2.48910634    0.19830113
 H                 -2.63225361    1.81881334    1.74011713
 H                 -1.66198561    1.21572234   -1.03156487
 H                 -2.12327261   -0.84324066   -1.47232087
 H                 -1.94442561   -2.77282566    0.08123513
 H                 -3.43746061   -2.28447766    0.88399313
 H                 -4.07294261   -4.07407666   -0.61324187
 H                 -2.45538161   -2.78244666   -2.68178987
 H                 -2.33780661   -4.28075666   -2.08215187
 H                 -5.51987561   -2.93526566   -2.30014787
 H                 -5.63785561   -1.63053566    0.18253613
 H                 -3.96248361   -1.03907066   -2.80706387
 H                 -6.35610161   -0.59192366   -3.25337287
 H                 -5.52916861    0.87306634   -2.68359687
 H                 -6.58705761   -0.03736266   -1.58721587
 H                  0.97499800   -1.25010900   -1.24836700
 H                  0.22359339    5.69450534    0.65661513
 H                  1.09830139    4.37365534   -0.13204887
 H                 -0.40064661    5.49507534   -1.97415987
 H                 -2.96489311   -3.28645519   -3.28731057



















































