%chk=123-an-PCM.chk
%nproc=8
%mem=30GB
#P UB3LYP/6-311++G(d,p) SCRF=(PCM,Solvent=n,n-DiMethylFormamide)

Reduced 

-2 1
C                 -2.8843430000     -1.9256500000     -0.1399690000
C                 -2.3917450000     -0.4940100000     -0.0503840000
C                 -3.3514160000      0.4996790000      0.0495630000
C                 -2.9957740000      1.8747440000      0.1380710000
C                 -1.6678480000      2.2241300000      0.1236060000
C                 -0.6322060000      1.2569960000      0.0233770000
C                  0.7284020000      1.7460540000      0.0179440000
O                  1.0207300000      3.0016830000      0.0989360000
C                  1.7355600000      0.7202780000     -0.0853430000
C                  3.1082530000      1.0848350000     -0.1003040000
C                  4.1194270000      0.1519860000     -0.1968450000
C                  3.7904770000     -1.2326100000     -0.2856410000
C                  2.4653880000     -1.6186260000     -0.2736850000
C                  1.3993560000     -0.6867970000     -0.1756110000
C                  0.0372440000     -1.1821670000     -0.1704800000
O                 -0.2093850000     -2.4479010000     -0.2532060000
C                 -0.9881120000     -0.1621640000     -0.0676740000
H                 -3.9843070000     -1.9377750000     -0.1088890000
H                 -2.4865440000     -2.5394440000      0.6709340000
H                 -2.5367710000     -2.4140540000     -1.0527850000
H                 -4.4031650000      0.2149510000      0.0598890000
H                 -3.7724310000      2.6346710000      0.2158680000
H                 -1.3448710000      3.2585020000      0.1883500000
H                  3.3215750000      2.1475360000     -0.0309530000
H                  5.1619260000      0.4683670000     -0.2053660000
H                  4.5803790000     -1.9788840000     -0.3622880000
H                  2.1802020000     -2.6643340000     -0.3397380000





