%chk=303-an.chk
%nproc=8
%mem=30GB
#P UB3LYP/6-311++G(d,p) nosym opt freq SCF=YQC Int=Acc2E=11

Reduced

-2 1
 C                 -2.02844700    4.80457400    5.43163100
 C                 -3.31124200    4.29504700    5.47074300
 C                 -3.76240100    3.43813000    4.43934900
 C                 -1.14187600    4.48272600    4.37467000
 C                 -1.59586100    3.61165400    3.32786700
 C                 -2.91174000    3.11576000    3.39392100
 C                  0.18387300    5.02679200    4.32800800
 C                  0.99173200    4.60802400    3.22480300
 C                  0.61575500    3.71573800    2.21503200
 C                 -0.74344600    3.23230900    2.18883700
 O                  0.69967000    5.85141000    5.17866400
 O                 -1.23415900    2.52598500    1.24288500
 O                  2.23361300    5.18614800    3.22994100
 H                 -1.66008900    5.46786900    6.20720300
 H                 -3.97556500    4.55310600    6.29216700
 H                 -4.77171300    3.03594800    4.46705600
 H                 -3.23174100    2.46633200    2.58633700
 H                  2.17170700    5.73400700    4.05066000
 C                  2.96852900    2.84394500    1.59921000
 C                  3.06614500    2.09003800    2.76995500
 C                  4.12105100    3.01106300    0.82317200
 C                  5.33463400    2.43920700    1.19883300
 C                  5.41850800    1.68369700    2.36972100
 C                  4.27754400    1.51443800    3.15298800
 H                  2.18388300    1.97194900    3.38854900
 H                  4.05385800    3.59329700   -0.09057600
 H                  6.21658300    2.58554200    0.58153900
 H                  4.33059000    0.93694400    4.07110400
 H                  6.36284500    1.23980100    2.67052600
 C                  1.65012000    3.45297700    1.10867900
 H                  1.92799000    4.44394400    0.72326500
 N                  1.18021700    2.69511500   -0.08496200
 C                  1.17018600    1.23195300    0.04747300
 C                  0.52447500    0.60704200   -1.19035200
 C                  0.54016700   -0.92567800   -1.17468100
 C                 -0.08527100   -1.55870000   -2.42393700
 C                 -0.04793000   -3.09192900   -2.43147800
 C                 -0.65250900   -3.72014900   -3.69327000
 H                  0.19509100    2.94455300   -0.17260900
 H                  0.61449000    0.90306000    0.93750800
 H                  2.20087400    0.87311900    0.13699800
 H                  1.04624300    0.97448700   -2.08367000
 H                 -0.51142400    0.96048700   -1.25708700
 H                  0.00960400   -1.28409900   -0.28352500
 H                  1.57630600   -1.27792600   -1.07572900
 H                  0.43435200   -1.18305900   -3.31595400
 H                 -1.12591600   -1.22134600   -2.51567400
 H                 -0.57834100   -3.47104100   -1.54810700
 H                  0.99265500   -3.42725400   -2.32608800
 H                 -0.12900300   -3.32873600   -4.57585100
 H                 -1.69673900   -3.39596200   -3.79352600
 C                 -0.59511500   -5.25257700   -3.71484800
 C                 -1.18357000   -5.87626900   -4.98639200
 C                 -1.11166200   -7.40787500   -5.01771900
 C                 -1.68834700   -8.02819000   -6.29625300
 C                 -1.60777000   -9.55921200   -6.33322700
 C                 -2.17739200  -10.17756600   -7.61584900
 C                 -2.09147900  -11.70842800   -7.65372100
 C                 -2.65744200  -12.32593400   -8.93819600
 C                 -2.56796400  -13.85686700   -8.97530800
 C                 -3.13210300  -14.47265100  -10.25890100
 H                 -1.12652300   -5.64707000   -2.83878400
 H                  0.44880700   -5.57536200   -3.60548400
 H                 -0.65680400   -5.47352800   -5.86172800
 H                 -2.23005200   -5.56134500   -5.09260400
 H                 -1.64422300   -7.81295700   -4.14715400
 H                 -0.06548000   -7.72194200   -4.90512500
 H                 -1.15821100   -7.61869700   -7.16633900
 H                 -2.73603500   -7.71897100   -6.40738600
 H                 -2.14137500   -9.97042500   -5.46611800
 H                 -0.56026900   -9.86816700   -6.21869900
 H                 -1.64515200   -9.76500400   -8.48315600
 H                 -3.22563700   -9.87160400   -7.73072100
 H                 -2.62553500  -12.12205700   -6.78804500
 H                 -1.04321300  -12.01414000   -7.53777400
 H                 -2.12485200  -11.91339100   -9.80501400
 H                 -3.70622500  -12.02357400   -9.05573800
 H                 -3.10029500  -14.27015200   -8.10916900
 H                 -1.51963500  -14.15936700   -8.85733100
 H                 -4.19135800  -14.22363300  -10.38933200
 H                 -3.05156800  -15.56515100  -10.25035000
 H                 -2.59554700  -14.11216100  -11.14389600






















