%chk=080.chk
%nproc=8
%mem=30GB
#P UB3LYP/6-311++G(d,p) nosym opt freq

Oxidized

0 1
C                  1.3491530000      1.4895290000     -2.4702500000
C                 -0.0883360000      1.7427850000     -2.7019630000
C                 -1.0633830000      0.9765630000     -2.1812580000
C                 -0.6829530000     -0.1922050000     -1.3238680000
C                  0.7569820000     -0.4424440000     -1.0734570000
O                  2.2048090000      2.2186620000     -2.9444120000
O                 -1.5329430000     -0.9234560000     -0.8433630000
H                 -0.3068470000      2.6060880000     -3.3224120000
C                  1.7191440000      0.3175480000     -1.6168360000
C                  3.1843380000      0.0808760000     -1.3017940000
C                  4.0840360000     -0.4253660000     -2.3725110000
C                  5.4615680000     -0.4846560000     -2.1164890000
C                  3.5936340000     -0.8643530000     -3.6082770000
C                  6.3311770000     -0.9694520000     -3.0842200000
C                  5.8344000000     -1.4078510000     -4.3139620000
C                  4.4660520000     -1.3576700000     -4.5740990000
O                  3.5692080000      0.2946520000     -0.1686760000
H                  5.8261430000     -0.1432250000     -1.1555200000
H                  2.5307940000     -0.8309270000     -3.8168820000
H                  7.3959510000     -1.0074590000     -2.8848910000
H                  6.5145660000     -1.7873290000     -5.0683000000
H                  4.0803570000     -1.6999520000     -5.5273320000
C                 -2.5251830000      1.2163880000     -2.3977850000
H                  0.9808170000     -1.2843110000     -0.4267530000
H                 -2.6899200000      2.0836680000     -3.0378680000
H                 -3.0330790000      1.3745740000     -1.4423500000
H                 -2.9948350000      0.3395950000     -2.8519840000


