%chk=129.chk
%nproc=8
%mem=30GB
#P UB3LYP/6-311++G(d,p) nosym opt freq SCRF=(PCM,Solvent=n,n-DiMethylFormamide)

Oxidized

0 1
C                 -3.7706340000      1.7680950000     -0.3469620000
C                 -2.5439740000      0.9175430000     -0.1366030000
C                 -1.2799030000      1.4333290000     -0.4132780000
C                 -0.1210200000      0.6751780000     -0.2306320000
C                  1.2031980000      1.2799400000     -0.5438190000
O                  1.3009480000      2.4245920000     -0.9579570000
C                  2.4124650000      0.4291660000     -0.3312070000
C                  3.6745730000      0.9607140000     -0.6132440000
C                  4.8159480000      0.1903950000     -0.4241540000
C                  4.7066060000     -1.1201550000      0.0491090000
C                  3.4561780000     -1.6570070000      0.3321030000
C                  2.3024370000     -0.8896120000      0.1450410000
C                  0.9719500000     -1.4925840000      0.4574650000
O                  0.8788860000     -2.6378660000      0.8709310000
C                 -0.2308520000     -0.6410400000      0.2441980000
C                 -1.4965210000     -1.1622680000      0.5227380000
C                 -2.6547580000     -0.4097780000      0.3418120000
C                 -4.0024310000     -1.0089090000      0.6537280000
H                 -3.5022280000      2.7584040000     -0.7166830000
H                 -4.4545570000      1.3113500000     -1.0697570000
H                 -4.3331360000      1.8955980000      0.5836840000
H                 -1.1706610000      2.4471340000     -0.7806950000
H                  3.7355010000      1.9782520000     -0.9790050000
H                  5.7921220000      0.6074830000     -0.6443720000
H                  5.5979720000     -1.7195530000      0.1959480000
H                  3.3476890000     -2.6699470000      0.6996010000
H                 -1.5568930000     -2.1808070000      0.8883310000
H                 -4.5267330000     -0.4342690000      1.4242310000
H                 -4.6497920000     -1.0180990000     -0.2292340000
H                 -3.9023800000     -2.0352830000      1.0086800000


