%chk=028-rad.chk
%nproc=8
%mem=30GB
#P UB3LYP/6-311++G(d,p) nosym  opt freq

Radical

-1 2
F    -2.7101935194    0.6226419003   -0.0164040226
C    -1.3777371896    0.3399345441   -0.0086231886
C    -0.5385307911    1.3491931848   -0.0181692000
F    -1.0001388644    2.6270038915   -0.0352187741
C     0.8855517416    1.0494816560   -0.0098851570
O     1.7217702688    2.0149072684   -0.0189158530
C     1.3718958966   -0.3325547377    0.0085137452
C     0.5331598358   -1.3584098965    0.0182682708
F     0.9862483562   -2.6378445763    0.0353137089
C    -0.8888145751   -1.0361747859    0.0097139760
O    -1.6874562615   -2.0096387201    0.0189531069
F     2.7042451021   -0.6285397286    0.0164533876


