%chk=074-rad.chk
%nproc=8
%mem=30GB
#P UB3LYP/6-311++G(d,p) nosym  opt freq

Radical

-1 2
C                  0.6057110000      1.2909160000     -0.8956190000
C                 -0.7366420000      0.8229490000     -0.5803160000
C                 -1.0286090000     -0.4817240000     -0.2408340000
C                  0.0748380000     -1.4392040000     -0.1012220000
C                  1.4513010000     -0.9957020000     -0.3503740000
C                  1.6730940000      0.3231880000     -0.6865220000
O                  0.8277890000      2.4466740000     -1.3136670000
O                 -0.1571200000     -2.6310970000      0.2326700000
S                  3.3422760000      0.9524230000     -1.0309080000
C                  3.4985110000      2.5426450000     -0.1654400000
C                  3.4284960000      3.7293320000     -0.8865520000
C                  3.7869450000      2.5343930000      1.1957650000
C                  3.9956410000      3.7465950000      1.8523800000
C                  3.6571820000      4.9337120000     -0.2263720000
C                  3.9351460000      4.9440560000      1.1410920000
O                  3.5061630000      1.2107440000     -2.4690600000
O                  4.3189320000      0.0712800000     -0.3605230000
H                  3.1871040000      3.6918120000     -1.9398520000
H                  3.8618090000      1.5929880000      1.7256170000
H                  3.6070420000      5.8661600000     -0.7780550000
H                  4.2151540000      3.7527790000      2.9145190000
H                  4.1025090000      5.8861560000      1.6526470000
S                 -2.0382100000      2.0737120000     -0.7878200000
C                 -1.4848300000      3.5570210000      0.1045440000
C                 -0.9662580000      4.6363020000     -0.6023170000
C                 -1.6818150000      3.6159150000      1.4810070000
C                 -1.3382630000      4.7802890000      2.1666090000
C                 -0.6423600000      5.8012190000      0.0885210000
C                 -0.8232360000      5.8728080000      1.4702300000
O                 -2.1851850000      2.4335550000     -2.2054660000
O                 -3.2361620000      1.6262580000     -0.0501370000
H                 -0.8148530000      4.5434970000     -1.6687170000
H                 -2.1125100000      2.7688840000      2.0002060000
H                 -1.4828950000      4.8356670000      3.2401150000
H                 -0.2376580000      6.6502540000     -0.4514320000
H                 -0.5602310000      6.7797630000      2.0045870000
C                 -2.4060700000     -1.0480150000     -0.0082580000
C                  2.5063310000     -2.0649080000     -0.2258380000
H                 -2.8426150000     -0.6579290000      0.9143880000
H                 -2.3205370000     -2.1304430000      0.0678870000
H                 -3.0954710000     -0.7780000000     -0.8084770000
H                  2.0064990000     -3.0271700000     -0.1309220000
H                  3.1331340000     -1.8993830000      0.6538370000
H                  3.1802660000     -2.0711220000     -1.0828030000


