%chk=325-an.chk
%nproc=8
%mem=30GB
#P UB3LYP/6-311++G(d,p) nosym opt freq

Reduced

-2 1
C                 -1.7894530000      2.7981990000     -0.7365410000
C                 -2.9010010000      2.0042170000     -0.5225910000
C                 -2.7326970000      0.6324890000     -0.1747070000
C                 -0.4641250000      2.3127570000     -0.6150520000
C                 -0.3027330000      0.9275510000     -0.1860390000
C                 -1.4602480000      0.1204380000     -0.0179170000
C                  0.6542350000      3.2036600000     -0.8910900000
C                  2.0314730000      2.6357510000     -0.7073300000
C                  2.1039820000      1.2704120000     -0.2578100000
C                  1.0064160000      0.4601160000      0.0008340000
O                  0.4809440000      4.4028270000     -1.2657870000
O                  3.0770740000      3.3245590000     -0.9143180000
H                 -1.8946500000      3.8421220000     -1.0181040000
H                 -3.9022560000      2.4165410000     -0.6363810000
H                 -3.6021830000     -0.0097990000     -0.0401400000
H                 -1.3205290000     -0.9230870000      0.2502250000
H                  3.1070550000      0.8877320000     -0.0642820000
O                  1.1900330000     -0.8736230000      0.4266420000
H                  2.0006120000     -1.1944910000      0.0058260000


