%chk=019-rad.chk
%nproc=8
%mem=30GB
#P UB3LYP/6-311++G(d,p) nosym  opt freq

Radical

-1 2
C                 -2.9083910000      0.4142110000      0.5256970000
C                 -1.9368300000     -0.4094610000     -0.3408670000
C                 -2.2803150000     -0.3324690000     -1.8406350000
C                 -0.4661280000     -0.1424700000     -0.0349560000
C                  0.2241770000      1.0284800000     -0.2211720000
Br                -0.6207300000      2.6259590000     -0.9494650000
C                  1.6323760000      1.2403430000      0.0858080000
O                  2.2197900000      2.3313860000     -0.1022690000
C                  2.3392700000      0.0812000000      0.6389470000
C                  1.6573080000     -1.0890180000      0.8264770000
Br                 2.5818410000     -2.6304300000      1.5571990000
C                  0.2559560000     -1.3053300000      0.5230560000
O                 -0.3167170000     -2.4036390000      0.7174190000
C                  3.7957950000      0.2646600000      0.9681830000
H                 -2.8678820000      1.4806850000      0.2988740000
H                 -2.6796700000      0.2826990000      1.5872110000
H                 -3.9357860000      0.0687080000      0.3593600000
H                 -2.0700470000     -1.4522490000     -0.0471390000
H                 -2.1941140000      0.6805280000     -2.2367780000
H                 -1.6168390000     -0.9819640000     -2.4189110000
H                 -3.3091650000     -0.6757950000     -2.0024640000
H                  4.4196190000     -0.4357900000      0.4035130000
H                  4.0886980000      1.2854000000      0.7255720000
H                  3.9877860000      0.0743550000      2.0290970000


