%chk=025-an.chk
%nproc=8
%mem=30GB
#P UB3LYP/6-311++G(d,p) nosym opt freq SCRF=(PCM,Solvent=n,n-DiMethylFormamide)

Reduced

-2 1
C                 -1.8778740000     -0.1869820000      1.3907530000
C                 -2.7347800000      0.6700110000      0.5882790000
C                 -2.1974910000      1.4804280000     -0.4106020000
C                 -0.8111870000      1.5913070000     -0.7234170000
C                  0.0457070000      0.7342320000      0.0789830000
C                 -0.4915800000     -0.0761620000      1.0778840000
O                 -0.2975840000      2.3464060000     -1.6288490000
O                 -2.3914800000     -0.9420350000      2.2962210000
Br                 0.6996360000     -1.1149740000      2.2371920000
Br                -3.3886900000      2.5191620000     -1.5699960000
N                  1.4314210000      0.8622440000     -0.2205660000
N                 -4.1204940000      0.5418890000      0.8877870000
C                 -4.7974590000      1.6875300000      1.5175770000
C                 -6.2966190000      1.3804300000      1.6416140000
C                 -7.0752650000      2.5385480000      2.2835500000
C                 -6.4829100000      2.9439620000      3.6414760000
C                 -4.9822860000      3.2516410000      3.5244680000
C                 -4.2168580000      2.0797240000      2.8931270000
C                  2.1082240000     -0.2834780000     -0.8503800000
C                  3.6075420000      0.0230930000     -0.9738220000
C                  1.5279460000     -0.6751420000     -2.2262150000
C                  2.2931580000     -1.8471900000     -2.8575820000
C                  4.3859750000     -1.1351610000     -1.6157770000
C                  3.7939340000     -1.5400260000     -2.9740040000
H                  1.4482360000      1.6473700000     -0.8798390000
H                 -4.1372620000     -0.2432610000      1.5470380000
H                 -4.6864430000      2.5432830000      0.8442520000
H                 -6.4220020000      0.4731090000      2.2504260000
H                 -6.6915890000      1.1485260000      0.6470030000
H                 -8.1352280000      2.2724290000      2.3979150000
H                 -7.0452900000      3.4059950000      1.6098070000
H                 -6.6227070000      2.1181130000      4.3533670000
H                 -7.0261890000      3.8058040000      4.0533390000
H                 -4.5698140000      3.4929360000      4.5134450000
H                 -4.8487180000      4.1499600000      2.9055560000
H                 -4.2561480000      1.2051480000      3.5552670000
H                 -3.1573840000      2.3228900000      2.7728090000
H                  1.9966640000     -1.1393360000     -0.1772840000
H                  4.0022400000      0.2546000000      0.0209870000
H                  3.7334730000      0.9305200000     -1.5823610000
H                  1.5677950000      0.1995700000     -2.8881430000
H                  0.4683390000     -0.9179280000     -2.1063210000
H                  1.8809360000     -2.0880920000     -3.8467600000
H                  2.1590510000     -2.7456110000     -2.2389350000
H                  4.3554430000     -2.0027590000     -0.9422550000
H                  5.4460780000     -0.8694130000     -1.7297150000
H                  4.3370380000     -2.4019640000     -3.3858950000
H                  3.9342730000     -0.7140540000     -3.6856470000


