%chk=228-an.chk
%nproc=8
%mem=30GB
#P UB3LYP/6-311++G(d,p) nosym opt freq

Reduced

-2 1
C          5.78202       -5.13092        1.23454
C          6.79622       -5.03502        0.27716
C          6.70000       -4.09578       -0.75454
C          4.66419       -4.28683        1.16583
C          4.56767       -3.35246        0.14204
C          5.58479       -3.25404       -0.82132
C          3.60199       -4.40000        2.18088
C          2.42463       -3.48876        2.08445
C          2.33355       -2.58216        1.09186
C          3.40137       -2.45944        0.05823
O          3.70379       -5.23106        3.07555
O          3.32266       -1.63721       -0.84704
C          7.73918       -3.99747       -1.73801
N          8.58282       -3.92288       -2.53085
H          5.86702       -5.86659        2.03396
H          7.65818       -5.69804        0.34421
H          5.50323       -2.51912       -1.62286
C          1.37357       -3.65122        3.14822
C          1.19159       -1.61999        0.90870
H          1.61066       -4.43651        3.87174
H          0.41102       -3.91600        2.69753
H          1.25703       -2.72175        3.71582
H          0.41625       -1.72145        1.67280
H          0.71116       -1.78022       -0.06256
H          1.55411       -0.58721        0.95142









