%chk=310.chk
%nproc=8
%mem=30GB
#P UB3LYP/6-311++G(d,p) nosym opt freq

Oxidized

0 1
O    -2.2485665409   -2.0650563139    0.2063328287
C    -1.6221185746   -0.8620620085    0.1007372524
C    -2.4497463638    0.2729278476    0.0314216547
C    -1.9128818764    1.5203951324   -0.0756690371
C    -0.5264399680    1.7438042811   -0.1224154129
O    -0.0544585483    2.9994923693   -0.2287521222
C     0.2723817720    0.6393252267   -0.0548223379
C     1.7158782593    0.8008750861   -0.0980474252
O     2.2741927978    1.9390806910   -0.1972206237
C     2.5915825297   -0.3916950554   -0.0253473122
C     2.1080327613   -1.5936207950    0.0771113177
C     0.6598716737   -1.7628611262    0.1210266026
O     0.2328143208   -2.9396008837    0.2203502698
C    -0.2620433286   -0.6531341913    0.0556638294
H    -1.8607751182   -2.9451791271    0.2655082639
H    -3.5148910521    0.1195899280    0.0659306032
H    -2.5595527579    2.3773652891   -0.1275389861
H     0.7552425561    3.4902674917   -0.2836746137
H     3.6537331608   -0.2274893120   -0.0606291116
H     2.7477442974   -2.4624245299    0.1300343604


