%chk=066-an.chk
%nproc=8
%mem=30GB
#P UB3LYP/6-311++G(d,p) nosym opt freq SCRF=(PCM,Solvent=n,n-DiMethylFormamide)

Reduced

-2 1
C                  1.39776100   -0.50294700    1.76731400
 C                  0.97502200   -1.52503700    0.84621900
 C                 -0.22312600   -1.49032800    0.15069200
 C                 -1.17978700   -0.42270000    0.26648300
 C                 -0.78957800    0.60092600    1.15986500
 C                  0.44368700    0.56689500    1.86452600
 O                  2.51538500   -0.57995900    2.43517100
 O                 -2.31116200   -0.41711700   -0.40745100
 S                  0.78526600    1.93356000    2.94233400
 C                  0.75369700    1.31625000    4.64725500
 C                 -0.36513400    1.59132000    5.43534900
 C                  1.83559700    0.59206000    5.15248600
 C                  1.78765100    0.14060200    6.47107000
 C                 -0.39843600    1.13565000    6.75261800
 C                  0.67651400    0.41191900    7.27134900
 O                  2.13652800    2.50791100    2.70761700
 O                 -0.34273200    2.90026200    2.85061700
 H                  1.64963300   -2.36919900    0.71762900
 H                 -0.47052000   -2.31035900   -0.52158100
 H                 -1.44949200    1.44868700    1.30228900
 H                 -1.18770500    2.16045300    5.02207100
 H                  2.66785800    0.36219500    4.50111400
 H                  2.62069500   -0.42492600    6.87353300
 H                 -1.26134500    1.35062700    7.37265300
 H                  0.64764800    0.05979300    8.29639600












