%chk=032-an-PCM.chk
%nproc=8
%mem=30GB
#P UB3LYP/6-311++G(d,p) SCRF=(PCM,Solvent=n,n-DiMethylFormamide)

Reduced 

-2 1
C                 -2.1811100000     -0.3805740000      0.0028100000
C                 -0.6944090000     -0.1299550000      0.0016540000
C                 -0.1932670000      1.1834550000     -0.0436570000
C                  1.1971880000      1.5258970000     -0.0496270000
O                  1.6450150000      2.7540800000     -0.0918980000
C                  2.0429100000      0.3711330000     -0.0029740000
C                  1.5545690000     -0.9429690000      0.0427610000
C                  0.1672820000     -1.2781040000      0.0472780000
O                 -0.2917200000     -2.5057580000      0.0878740000
H                 -2.4868700000     -0.9823180000      0.8730350000
H                 -2.4976080000     -0.9664200000     -0.8757900000
H                 -2.7417710000      0.5644660000      0.0117360000
H                 -0.8998290000      2.0174580000     -0.0772350000
H                  3.1212020000      0.5477510000     -0.0033760000
H                  2.2584170000     -1.7781430000      0.0774090000





