%chk=105.chk
%nproc=8
%mem=30GB
#P UB3LYP/6-311++G(d,p) nosym opt freq

Oxidized

0 1
C         -0.95717       -1.61067        3.63446
C          0.36370       -2.00239        3.10911
C          0.91606       -1.49096        1.99670
C          0.12010       -0.46154        1.25764
C         -1.20831       -0.07890        1.77664
C         -1.75993       -0.58707        2.88201
O         -1.38109       -2.10970        4.67480
O          0.52363        0.08081        0.23511
N         -2.99719       -0.29295        3.44199
C         -3.96516        0.77033        3.18219
C         -5.07845        0.64769        4.24238
C         -4.60496        0.59631        1.79948
C         -3.31373        2.15099        3.32529
C          2.29906       -1.89325        1.44645
C          3.00541       -2.96530        2.31657
C          2.16580       -2.49785        0.03258
C          3.24408       -0.67336        1.40643
H          0.85470       -2.75119        3.71926
H         -1.71229        0.66365        1.17397
H         -3.10878       -0.77615        4.34087
H         -4.67499        0.75918        5.25586
H         -5.56631       -0.33303        4.19272
H         -5.84932        1.41397        4.10305
H         -5.02693       -0.40876        1.68314
H         -3.88907        0.74378        0.98674
H         -5.41487        1.31911        1.64752
H         -2.82053        2.25649        4.29862
H         -4.05993        2.94912        3.23927
H         -2.55785        2.33314        2.55567
H          3.17908       -2.60583        3.33764
H          3.98491       -3.23034        1.90007
H          2.42025       -3.89081        2.37076
H          1.46854       -3.34391        0.02945
H          3.13280       -2.86536       -0.33124
H          1.81070       -1.77150       -0.70432
H          3.31983       -0.20047        2.39264
H          2.91620        0.09056        0.69542
H          4.25567       -0.96863        1.10308







