%chk=173-an.chk
%nproc=8
%mem=30GB
#P UB3LYP/6-311++G(d,p) nosym opt freq SCF=YQC

Reduced

-2 1
C                 -1.4404810000      2.4213050000     -3.9065010000
C                 -1.3617620000      1.0532700000     -4.0577110000
C                 -1.0302910000      0.2389260000     -2.9381980000
C                 -1.2013910000      3.0556840000     -2.6586560000
C                 -0.8654430000      2.2329910000     -1.5284550000
C                 -0.7930920000      0.8278250000     -1.7140890000
C                 -1.3095180000      4.4866110000     -2.5566460000
C                 -0.5969680000      2.7928700000     -0.2293800000
C                 -1.0671550000      5.0647260000     -1.2531610000
C                 -0.6667810000      4.2332350000     -0.1170170000
C                 -1.2155590000      6.4951430000     -1.0504950000
C                 -0.9264290000      7.0469630000      0.1815600000
C                 -0.4871930000      6.2513110000      1.2680340000
C                 -0.3397370000      4.8803680000      1.1429050000
O                 -1.6124870000      5.1854460000     -3.6170190000
O                 -0.3142920000      1.9997610000      0.7655650000
H                 -1.6928090000      3.0699270000     -4.7387210000
H                 -1.5529680000      0.5964000000     -5.0271550000
H                 -0.9638490000     -0.8418250000     -3.0497440000
H                 -0.5387180000      0.2368160000     -0.8405880000
H                 -0.2387490000      6.7431190000      2.2028230000
H                 -1.0574010000      8.1133710000      0.3405620000
N                 -1.7150500000      7.2878910000     -2.1099600000
N                  0.1793390000      4.0958340000      2.1845700000
H                 -1.7468920000      6.6846910000     -2.9589470000
H                  0.0498640000      3.0924280000      1.9418810000
C                  0.0357010000      4.4645870000      3.5763660000
C                  0.9027830000      3.5246060000      4.4257390000
C                 -1.4301850000      4.4560780000      4.0658640000
C                 -1.2058330000      8.6267020000     -2.3363950000
C                  0.3006850000      8.6649960000     -2.6781970000
C                 -2.0336770000      9.2797920000     -3.4518110000
H                  0.4255690000      5.4826610000      3.7180630000
H                  0.8443710000      3.7773040000      5.4913960000
H                  1.9476080000      3.5797150000      4.1066550000
H                  0.5709090000      2.4875840000      4.3044990000
H                 -2.0399200000      5.0940110000      3.4208020000
H                 -1.5164390000      4.8168190000      5.0996270000
H                 -1.8347040000      3.4390430000      4.0176490000
H                 -1.3531820000      9.2281630000     -1.4277690000
H                  0.8718630000      8.1624820000     -1.8940150000
H                  0.6684760000      9.6965860000     -2.7736650000
H                  0.4845790000      8.1379040000     -3.6204610000
H                 -1.9437790000      8.7009800000     -4.3773480000
H                 -1.6942310000     10.3033540000     -3.6528700000
H                 -3.0915430000      9.3034160000     -3.1749260000


