%chk=279.chk
%nproc=8
%mem=30GB
#P UB3LYP/6-311++G(d,p) nosym opt freq

Oxidized

0 1
  O   -1.2994457    2.4210581    0.3275429
  C   -1.2283981    1.2069460    0.2109953
  C   -2.4721434    0.4060550    0.1894618
  C   -2.4391280   -0.9305572    0.0630961
  O   -3.6053012   -1.6151564    0.0490659
  C   -1.1373054   -1.6426718   -0.0592695
  O   -1.1190388   -2.8594460   -0.1737691
  C    0.1330792   -0.8716987   -0.0417029
  C    1.3770664   -1.5177992   -0.1554599
  C    2.5607060   -0.7757301   -0.1369104
  C    2.5154557    0.6133298   -0.0051653
  C    1.2863434    1.2675332    0.1087277
  C    0.0880258    0.5321899    0.0914378
  H   -3.4289346    0.9137100    0.2779328
  H    1.4343527   -2.5941707   -0.2585076
  H    3.5150971   -1.2786969   -0.2248739
  H    3.4347792    1.1844873    0.0087455
  H    1.2726356    2.3455165    0.2100517
  H   -3.6383709   -2.5777704   -0.0395712


