%chk=016-an.chk
%nproc=8
%mem=30GB
#P UB3LYP/genecp nosym opt freq  

Reduced

-2 1
 C                 -1.75493600    1.46779600    1.04510500
 C                 -2.95626400    0.69444200    0.80709900
 C                 -3.00316900   -0.53058700    0.20048900
 C                 -1.75719000   -1.15390400   -0.26471400
 C                 -0.53178400   -0.38504400   -0.03231000
 C                 -0.52097400    0.84389100    0.58049900
 O                 -1.72856200   -2.27564200   -0.82815900
 O                 -1.79648200    2.58681900    1.60951400
 I                  1.21895500    1.99657900    0.94090000
 I                  1.21608300   -1.35922900   -0.73479000
 H                 -3.85502600    1.18271500    1.16183200
 C                 -4.33025400   -1.28400700   -0.01323800
 C                 -5.53895500   -0.49719900    0.52981800
 C                 -4.28763100   -2.64534900    0.72270900
 C                 -4.56499900   -1.51955100   -1.52518300
 H                 -5.65460500    0.46975200    0.03178800
 H                 -5.46023300   -0.31835200    1.60603100
 H                 -6.45249600   -1.07462800    0.35347900
 H                 -4.15448800   -2.49429000    1.79892600
 H                 -3.46618800   -3.25716500    0.35225800
 H                 -5.23072700   -3.18434600    0.57070300
 H                 -4.62903300   -0.56390100   -2.05567400
 H                 -5.50889200   -2.05643500   -1.67985300
 H                 -3.75141200   -2.10274500   -1.95455000

H C O 0
6-311++G(d,p)
****
I 0
def2TZVP
****

I 0
def2TZVP











