%chk=291-an.chk
%nproc=8
%mem=30GB
#P UB3LYP/6-311++G(d,p) nosym opt freq SCF=YQC

Reduced

-2 1
 C                  0.18900900    3.77971100   -0.07768900
 C                 -0.96562000    3.68440700   -0.82969900
 C                 -1.10196700    2.65221100   -1.79061600
 C                  1.25777400    2.86192300   -0.24055900
 C                  1.12026500    1.81055100   -1.21979200
 C                 -0.06912800    1.74384800   -1.96803800
 C                  2.44739900    2.96556500    0.54995000
 C                  3.45481400    1.98175500    0.29373900
 C                  3.36096800    0.95353000   -0.63808000
 C                  2.18017900    0.81972500   -1.45090500
 O                  2.68652900    3.85445100    1.46540100
 O                  2.05452700   -0.10408100   -2.31930700
 H                  0.31443000    4.56231800    0.66373100
 H                 -1.77061500    4.40232500   -0.68538700
 H                 -2.01009400    2.57406300   -2.38375800
 H                 -0.14232300    0.94339300   -2.69742700
 O                  4.56574900    2.13811300    1.08558100
 H                  4.28533600    2.93121700    1.60771300
 C                  4.48673400   -0.03508600   -0.80661500
 C                  5.52963700    0.41052600   -1.85653700
 C                  6.66172500   -0.60129800   -2.13572500
 C                  7.50444600   -0.15411500   -3.34975600
 C                  8.50738900   -1.18845900   -3.88412700
 C                  9.28890100   -0.68921800   -5.10775600
 C                 10.23798500   -1.71183500   -5.76403500
 C                 10.79408700   -1.16127200   -7.08585200
 C                  7.53922400   -0.83215700   -0.89524300
 C                 11.38288700   -2.13633700   -4.83203600
 H                  4.05171600   -0.98445900   -1.13875100
 H                  4.97962200   -0.19032100    0.15868400
 H                  5.96833200    1.36392600   -1.53611900
 H                  4.99260300    0.60379300   -2.79080000
 H                  6.18841200   -1.55949100   -2.39838800
 H                  8.04309000    0.76706800   -3.08520800
 H                  6.81921400    0.11968900   -4.16092900
 H                  7.96688300   -2.10653700   -4.15202500
 H                  9.20983000   -1.46767200   -3.09254900
 H                  9.87110400    0.19949300   -4.82699000
 H                  8.57131900   -0.34964200   -5.86594900
 H                  9.64734700   -2.60855500   -5.99806700
 H                  9.98710400   -0.89935000   -7.77985700
 H                 11.44213500   -1.88717000   -7.58840600
 H                 11.39034800   -0.25691900   -6.91451600
 H                  8.32845200   -1.56820400   -1.07863000
 H                  6.94482200   -1.18978700   -0.05177100
 H                  8.01588500    0.10494000   -0.58466500
 H                 11.01390400   -2.62265300   -3.92377700
 H                 11.98029100   -1.26882100   -4.52721800
 H                 12.05964800   -2.83801300   -5.33114100












