%chk=257.chk
%nproc=8
%mem=30GB
#P UB3LYP/6-311++G(d,p) nosym opt freq

Oxidized

0 1
C     3.9825156544    0.5705325634   -0.0947890296
O     2.7585928611    1.2842915471   -0.1808269583
C     1.5786415970    0.5653258508   -0.1181057372
C     1.5227448018   -0.7534149204   -0.0153545992
C     0.2733542013   -1.4789646094    0.0482817690
O     0.2941357570   -2.7280072094    0.1451647507
C    -1.0138622735   -0.7804877054    0.0015419788
C    -2.2149041063   -1.4772730510    0.0626891331
C    -3.4023147135   -0.8046364852    0.0173979419
C    -3.3868161754    0.5699265846   -0.0894491791
C    -2.1984585139    1.2512087190   -0.1493172094
C    -0.9793230866    0.5938927978   -0.1054024163
C     0.2884079029    1.2820225658   -0.1662456485
O     0.2748847223    2.5403344058   -0.2638967472
H     3.9715511592    0.0530159175    0.8846280538
H     4.8578872110    1.2437872150   -0.1638508105
H     3.9686418365   -0.1895997090   -0.9047876418
H     2.4996333081   -1.2617220410    0.0184489020
H    -2.1658832044   -2.5496190775    0.1456870244
H    -4.3566642867   -1.3280527191    0.0636466978
H    -4.3588177335    1.0806050678   -0.1234277774
H    -2.1939469189    2.3168342928   -0.2321283616


