%chk=163-an-PCM.chk
%nproc=8
%mem=30GB
#P UB3LYP/6-311++G(d,p) SCRF=(PCM,Solvent=n,n-DiMethylFormamide)

Reduced 

-2 1
 C                 -3.82541200   -2.31493500   -0.00707100
 C                 -5.13032900   -1.88475100   -0.00623000
 C                 -5.43399800   -0.49765500   -0.00022200
 C                 -2.73528100   -1.38472400   -0.00213100
 C                 -3.04567300    0.01611100    0.00431100
 C                 -4.39806800    0.41630100    0.00518400
 C                 -1.40378500   -1.81882700   -0.00260700
 C                 -2.00801600    1.04295900    0.01111900
 C                 -0.33731600   -0.88669500    0.00056100
 C                 -0.62230400    0.55483600    0.00390800
 C                  1.04201900   -1.31218500    0.00060900
 C                  2.07058400   -0.39983800    0.00052200
 C                  1.81174400    0.98407000   -0.00094800
 C                  0.50683300    1.41746300    0.00073700
 O                 -1.20124600   -3.18925200   -0.00687500
 O                 -2.31860600    2.26178000    0.02264900
 H                 -3.58896600   -3.37194800   -0.01157300
 H                 -5.93764300   -2.61440000   -0.01022000
 H                 -6.46795100   -0.16311700    0.00020700
 H                 -4.58470800    1.48488600    0.01040000
 Br                 0.36838300    3.36784100   -0.00723100
 N                  1.35675500   -2.73790700    0.00066400
 S                  3.80829900   -0.98357500    0.00205800
 O                  3.93228300   -1.80357100    1.24628700
 O                  3.93195000   -1.81088300   -1.23765300
 O                  4.64893100    0.23769600   -0.00184300
 H                  2.64285000    1.67344200   -0.00378900
 H                 -0.21496800   -3.31285500   -0.00614200
 H                  1.96179900   -2.91479600    0.80418100
 H                  1.97365700   -2.91205200   -0.79453500






























