%chk=069.chk
%nproc=8
%mem=30GB
#P UB3LYP/6-311++G(d,p) nosym opt freq

Oxidized

0 1
C                  1.1174430000      1.5344840000     -0.1856830000
C                 -0.0711000000      1.0571520000      0.5617800000
C                 -0.2433550000     -0.2355990000      0.8551610000
C                  0.7434660000     -1.2553870000      0.4390330000
C                  1.9310490000     -0.8053510000     -0.3809760000
C                  2.0629060000      0.4948920000     -0.6991660000
O                  1.3175630000      2.7241130000     -0.3374190000
O                  0.6065310000     -2.4259340000      0.7363640000
S                  3.3973710000      1.0604350000     -1.8264510000
C                  4.4911770000      2.0405920000     -0.7934980000
C                  4.3891370000      3.4292380000     -0.8235760000
C                  5.4354690000      1.3795000000     -0.0079290000
C                  6.2968140000      2.1419770000      0.7765060000
C                  5.2648520000      4.1762800000     -0.0400400000
C                  6.2126530000      3.5345500000      0.7574250000
O                  2.7764280000      1.9151080000     -2.8366140000
O                  4.1099980000     -0.1591110000     -2.2198960000
H                 -0.7644650000      1.8301670000      0.8739430000
H                 -1.0918550000     -0.6045310000      1.4204030000
H                  3.6397520000      3.9007750000     -1.4450550000
H                  5.4943610000      0.2978890000     -0.0157670000
H                  7.0377160000      1.6483030000      1.3941770000
H                  5.2062480000      5.2582480000     -0.0532300000
H                  6.8897040000      4.1224540000      1.3669060000
C                  2.9513630000     -1.9238520000     -0.6183570000
C                  2.7588290000     -2.8736260000     -1.7352620000
C                  1.8002760000     -2.6561500000     -2.7307520000
C                  3.5634730000     -4.0194630000     -1.7846950000
C                  1.6464940000     -3.5728980000     -3.7654950000
C                  2.4484090000     -4.7124950000     -3.8083690000
C                  3.4069310000     -4.9345850000     -2.8171860000
O                  3.8164230000     -2.0253590000      0.2269270000
H                  1.1843570000     -1.7642640000     -2.7113150000
H                  4.3008250000     -4.1729760000     -1.0065140000
H                  0.9081530000     -3.3972880000     -4.5390320000
H                  2.3288210000     -5.4270870000     -4.6150670000
H                  4.0290720000     -5.8214290000     -2.8534610000


