%chk=064-rad.chk
%nproc=8
%mem=30GB
#P UB3LYP/6-311++G(d,p) nosym  opt freq

Radical

-1 2
O     1.3764479060    1.9994020879   -1.0650210130
C     0.7835866940    1.0035039120   -0.6139262130
C    -0.7036594959    1.0526237337   -0.6452006985
C    -1.4633825203    0.0735994604   -0.2027995044
C    -0.7741298880   -1.0860297385    0.3306693351
O    -1.4177643763   -2.0639491801    0.7732512001
C     0.7031444855   -1.1365072003    0.3625043854
C     1.4548975532   -0.1468685253   -0.0847885177
C     2.9146774949   -0.2278745652   -0.0391152822
C     3.5348087773   -1.3683413259    0.4851877665
C     4.9181807242   -1.4757206026    0.5424471409
C     5.7219548285   -0.4725287512    0.0892920467
C     5.1474173335    0.6523483401   -0.4276252684
C     3.7659961457    0.7477724187   -0.4794151256
C    -2.9252978205    0.1902519801   -0.2647427966
C    -3.5004758715    1.3341935642   -0.7903956299
C    -4.8697297818    1.5269527499   -0.8865123418
C    -5.7208517551    0.5527798072   -0.4468209546
C    -5.1711700921   -0.5888794058    0.0776384836
C    -3.7880015644   -0.7727919369    0.1698026322
H    -1.1199967644    1.9473763219   -1.0561362885
H     1.1124235899   -2.0324893585    0.7739513195
H     2.9699741829   -2.1859162038    0.8550352136
H     5.4005769017   -2.3643714407    0.9509728491
H     6.7930260705   -0.5178455130    0.1163584392
H     5.7558747618    1.4759982673   -0.7999924562
H     3.3777449528    1.6754732801   -0.9052160491
H    -2.8981031739    2.1490573293   -1.1588188107
H    -5.2570339036    2.4423677948   -1.3067222372
H    -6.8149441839    0.6784786616   -0.5106860688
H    -5.8523742948   -1.3619912391    0.4265443903
H    -3.4538169157   -1.7000747223    0.5951237035


