%chk=265-an-PCM.chk
%nproc=8
%mem=30GB
#P UB3LYP/6-311++G(d,p) SCRF=(PCM,Solvent=n,n-DiMethylFormamide)

Reduced 

-2 1
C                 -1.1654240000      3.0059300000     -0.5479510000
C                 -2.4819670000      2.5948280000     -0.3656980000
C                 -2.7653610000      1.2817380000      0.0552350000
C                 -0.0979450000      2.1139170000     -0.3109150000
C                 -0.3885290000      0.7835500000      0.1107430000
C                 -1.7351490000      0.3849010000      0.2764290000
C                  1.2823200000      2.5885680000     -0.5023650000
C                  2.3017420000      1.6143190000     -0.2195520000
C                  1.9574780000      0.2820210000      0.2230190000
C                  0.6579670000     -0.1788490000      0.4169140000
O                  1.4415050000      3.7935360000     -0.8722040000
O                  0.3043620000     -1.3563020000      0.8444110000
H                 -3.7962250000      0.9679580000      0.1937920000
H                  2.7645850000     -0.4059650000      0.4388560000
C                 -2.0502520000     -1.0228520000      0.6912300000
O                 -2.5297360000     -1.3508110000      1.7606180000
O                 -2.0703260000     -1.8649110000     -0.3986210000
C                 -1.9681800000     -3.2462470000     -0.0709870000
H                 -3.2939380000      3.2877420000     -0.5644610000
H                 -1.9819560000     -3.7847340000     -1.0215400000
H                 -2.8024060000     -3.5741770000      0.5582740000
H                 -1.0192480000     -3.4085900000      0.4468990000
C                  3.6930670000      1.9885260000     -0.3633060000
O                  4.1987280000      3.0599730000     -0.6645730000
O                  4.5691040000      0.9034070000     -0.0962410000
C                 -0.9753450000      4.4239970000     -1.0346470000
O                 -1.2524480000      4.7734580000     -2.1609570000
O                 -0.8182720000      5.4105770000     -0.0920390000
C                 -0.2625700000      5.0824080000      1.1854720000
C                  5.9421600000      1.2120350000     -0.2076020000
H                 -0.3317640000      5.9985710000      1.7774040000
H                  0.7774580000      4.7791750000      1.0578430000
H                 -0.8293730000      4.2865700000      1.6769480000
H                  6.4781950000      0.2872270000      0.0254470000
H                  6.2438790000      2.0004970000      0.4921500000
H                  6.2065930000      1.5486170000     -1.2169540000





