%chk=109-an.chk
%nproc=8
%mem=30GB
#P UB3LYP/6-311++G(d,p) nosym opt freq

Reduced

-2 1
C                 -1.8874040000     -3.6948250000      1.2470760000
C                 -0.5078590000     -3.8747450000      1.0836180000
C                  0.3642510000     -2.8254170000      0.6791350000
C                 -0.0715110000     -1.4947060000      0.4002620000
C                 -1.5081730000     -1.3092030000      0.5710790000
C                 -2.3186230000     -2.3511610000      0.9643020000
O                 -2.8107180000     -4.5512180000      1.6089540000
O                  0.6954150000     -0.5303520000      0.0322280000
O                 -3.6839590000     -2.2056180000      1.1345140000
C                 -2.0874250000      0.0573180000      0.3061940000
Br                 0.1472570000     -5.6795560000      1.4510780000
Br                 2.2784600000     -3.1338190000      0.4664630000
H                 -1.2686650000      0.7274190000      0.0319360000
H                 -2.6079190000      0.4604270000      1.1874050000
H                 -2.8268810000      0.0405820000     -0.5085420000
H                 -3.8945000000     -3.1402970000      1.4100480000














