%chk=305.chk
%nproc=8
%mem=30GB
#P UB3LYP/6-311++G(d,p) nosym opt freq

Oxidized

0 1
C          4.36495       -1.04806        4.04493
C          3.22972       -1.37002        4.78727
C          1.96754       -1.19767        4.21351
C          4.22958       -0.54934        2.73891
C          2.97411       -0.36698        2.17210
C          1.83529       -0.69784        2.91532
C          5.42903       -0.21543        1.96654
C          5.25472        0.31192        0.58926
C          4.05180        0.50736        0.02095
C          2.82518        0.17830        0.80505
O          6.56347       -0.35223        2.41517
O          1.69457        0.34791        0.36578
O          6.42833        0.61822       -0.08637
O          3.21475       -1.85732        6.06364
C          4.46948       -1.98615        6.72248
C          3.97081        1.07636       -1.38432
C          2.63800        1.03463       -2.14362
C          2.80613        1.53934       -3.58323
C          1.46821        1.75594       -4.31723
C          0.66805        0.45385       -4.48117
C          1.72822        2.40290       -5.68886
C          0.43612        2.62130       -6.47124
C         -0.35058        1.32491       -6.62544
C         -0.61964        0.67277       -5.27410
H          5.36338       -1.17410        4.45409
H          1.07652       -1.45084        4.78516
H          0.84048       -0.56713        2.49223
H          7.15230        0.40015        0.54069
H          4.27888       -2.35443        7.73510
H          4.97142       -1.01672        6.80924
H          5.10657       -2.71810        6.21545
H          4.70913        0.55030       -2.00575
H          4.29554        2.12470       -1.33427
H          1.90567        1.67313       -1.63693
H          2.25358        0.00889       -2.15590
H          3.43068        0.83321       -4.14505
H          3.35067        2.49224       -3.56191
H          0.86372        2.45642       -3.72454
H          0.40371        0.04116       -3.50145
H          1.28333       -0.29877       -4.99021
H          2.40340        1.76842       -6.27739
H          2.23365        3.36718       -5.55714
H          0.66928        3.03094       -7.46052
H         -0.18204        3.36591       -5.95471
H          0.21083        0.62972       -7.26162
H         -1.30016        1.52756       -7.13339
H         -1.12725       -0.28694       -5.42316
H         -1.30076        1.30656       -4.69270





