%chk=006-rad.chk
%nproc=8
%mem=30GB
#P UB3LYP/genecp nosym opt freq

Radical

-1 2
C                 -1.3155720000      1.9803310000      0.5654440000
C                 -2.6103440000      1.3601730000      0.2525810000
C                 -2.6828540000      0.1061860000     -0.2936330000
C                 -1.5212640000     -0.7004430000     -0.6068970000
C                 -0.2395310000     -0.0957480000     -0.2988610000
C                 -0.1652210000      1.1542160000      0.2482300000
O                 -1.2318680000      3.1300830000      1.0674270000
O                 -1.6108500000     -1.8531710000     -1.1128310000
H                  0.6460910000     -0.6786360000     -0.5206360000
I                  1.7433410000      1.9996450000      0.6885520000
C                 -3.8358960000      2.2106420000      0.5503370000
C                 -4.0523310000      3.2583600000     -0.5608030000
C                 -5.1187050000      1.4049740000      0.7936600000
H                 -3.6404150000     -0.3519640000     -0.5202350000
H                 -3.5998710000      2.7685050000      1.4627130000
H                 -4.2771880000      2.7683660000     -1.5146160000
H                 -3.1559630000      3.8682220000     -0.6853770000
H                 -4.8888480000      3.9232620000     -0.3129370000
H                 -5.4520170000      0.8838130000     -0.1098250000
H                 -5.9301290000      2.0732010000      1.1029320000
H                 -4.9774460000      0.6551840000      1.5773360000

H C O 0
6-311++G(d,p)
****
I 0
def2TZVP
****

I 0
def2TZVP







