%chk=191-rad.chk
%nproc=8
%mem=30GB
#P UB3LYP/6-311++G(d,p) nosym opt freq

Radical

-1 2
C          4.98499       -2.94228       -0.35168
C          5.74941       -2.07343       -1.12115
C          5.20814       -0.87178       -1.56123
C          3.65787       -2.62132       -0.00750
C          3.09717       -1.40848       -0.44607
C          3.88314       -0.51957       -1.23483
C          2.86293       -3.56407        0.81396
C          1.44430       -3.25922        1.20263
C          0.86035       -2.02701        0.76263
C          1.69001       -1.08626       -0.07133
C          0.65611       -4.15725        1.99725
C         -0.65236       -3.82471        2.32790
C         -0.49562       -1.73356        1.13302
C         -1.21611       -2.63826        1.90482
O          3.39952       -4.60065        1.16636
O          1.21922       -0.03204       -0.45905
O          1.08522       -5.34917        2.47589
H          5.43729       -3.87040       -0.02513
H          6.76843       -2.33340       -1.37808
H          5.83247       -0.22084       -2.15787
O          3.34585        0.65596       -1.66231
H          1.94565       -5.75995        2.36264
O         -1.16947       -0.61076        0.78744
H         -2.23925       -2.41526        2.18344
H         -1.24667       -4.50356        2.92799
H         -0.86050        0.13237        0.26393
C          3.97845        1.61362       -2.42850
H          3.27689        2.45342       -2.60980
H          4.27758        1.18515       -3.40877
H          4.86925        2.00654       -1.89362





