%chk=065.chk
%nproc=8
%mem=30GB
#P UB3LYP/6-311++G(d,p) nosym opt freq SCRF=(PCM,Solvent=n,n-DiMethylFormamide)

Oxidized

0 1
C                 -1.3550040000     -2.0310740000      1.1258560000
C                 -1.4205820000     -1.9980520000     -0.3553350000
C                 -0.7926880000     -1.0490490000     -1.0599480000
C                 -0.0029990000      0.0114680000     -0.3811510000
C                  0.0630520000     -0.0204280000      1.0975050000
C                 -0.5628820000     -0.9678910000      1.8145850000
O                 -1.9302300000     -2.8995130000      1.7635390000
O                  0.5690660000      0.8761970000     -1.0250620000
C                 -0.5326280000     -1.0524730000      3.3130530000
O                  0.2474040000      0.0111570000      3.8253370000
C                  0.4028940000      0.1158610000      5.1849390000
C                 -0.1597230000     -0.7628290000      6.1126810000
C                  1.1855530000      1.1904690000      5.6206540000
C                  1.4023380000      1.3821570000      6.9783970000
C                  0.0683320000     -0.5556140000      7.4759320000
C                  0.8448160000      0.5097440000      7.9167760000
H                 -2.0048560000     -2.7861370000     -0.8174120000
H                 -0.8245070000     -1.0021090000     -2.1428180000
H                  0.6428520000      0.7604370000      1.5734260000
H                 -0.1196090000     -2.0241670000      3.6124520000
H                 -1.5591820000     -1.0100740000      3.6987550000
H                 -0.7679600000     -1.5999980000      5.7976270000
H                  1.6114690000      1.8587630000      4.8819740000
H                  2.0102610000      2.2176380000      7.3069090000
H                 -0.3710600000     -1.2411440000      8.1918900000
H                  1.0158020000      0.6619470000      8.9757100000


