%chk=206-an-PCM.chk
%nproc=8
%mem=30GB
#P UB3LYP/6-311++G(d,p) SCRF=(PCM,Solvent=n,n-DiMethylFormamide)

Reduced 

-2 1
C                 -4.5563050000      0.8893680000      0.3393740000
C                 -3.1860490000      0.2789010000      0.1861660000
C                 -3.0540000000     -1.1185690000     -0.0826970000
C                 -1.8249330000     -1.7118100000     -0.2479670000
O                 -1.7407120000     -3.0528840000     -0.5012750000
C                 -0.6197610000     -0.9286540000     -0.1500600000
C                  0.6560770000     -1.5374600000     -0.3148510000
O                  0.7593340000     -2.8482680000     -0.5658320000
C                  1.8201580000     -0.7238400000     -0.2074020000
C                  3.1327040000     -1.2973330000     -0.3693010000
O                  3.2601280000     -2.6350460000     -0.6284580000
C                  4.2537270000     -0.5067980000     -0.2645250000
C                  4.1402900000      0.8875690000      0.0046120000
C                  2.9081310000      1.4777680000      0.1664440000
O                  2.8210710000      2.8190710000      0.4234120000
C                  1.7045790000      0.6899290000      0.0656710000
C                  0.4261690000      1.2956400000      0.2337450000
O                  0.3229050000      2.6065000000      0.4934030000
C                 -0.7373730000      0.4831930000      0.1226230000
C                 -2.0517400000      1.0586140000      0.2798740000
O                 -2.1672960000      2.4034250000      0.5188740000
H                 -5.0298360000      1.1033610000     -0.6328290000
H                 -4.5011940000      1.8345070000      0.8842430000
H                 -5.2320670000      0.2118210000      0.8787600000
H                 -3.9430940000     -1.7403940000     -0.1554700000
H                 -0.7453970000     -3.2281200000     -0.5749230000
H                  2.3063330000     -2.9738790000     -0.6532640000
H                  5.2297540000     -0.9666660000     -0.3913400000
H                  5.0288020000      1.5074030000      0.0860880000
H                  1.8258550000      2.9914510000      0.4994930000
H                 -1.2062600000      2.7311990000      0.5574140000





