%chk=239-an.chk
%nproc=8
%mem=30GB
#P UB3LYP/6-311++G(d,p) nosym opt freq

Reduced

-2 1
C                 -2.8887600000      1.3090130000     -0.7390520000
C                 -2.1613470000      0.0837840000     -0.1509540000
C                 -2.7037430000     -0.1449710000      1.2813870000
C                 -2.5268150000     -1.1382860000     -1.0320370000
C                 -0.6245730000      0.2438010000     -0.1046680000
C                 -0.0091220000      1.4304990000     -0.5636640000
C                  1.3847350000      1.7020850000     -0.5663560000
O                  1.8986240000      2.8043660000     -1.0027740000
C                  2.1971380000      0.6212900000     -0.0240110000
C                  3.6033530000      0.7529260000      0.0400140000
C                  4.4135480000     -0.2469410000      0.5478190000
C                  3.8238020000     -1.4475740000      1.0235040000
C                  2.4505960000     -1.6040520000      0.9708630000
C                  1.5950150000     -0.5992990000      0.4564840000
C                  0.1572910000     -0.8353630000      0.4271870000
O                 -0.3406850000     -1.9513130000      0.8663520000
H                 -2.5753100000      1.5098680000     -1.7689560000
H                 -3.9720750000      1.1297220000     -0.7461240000
H                 -2.7009680000      2.2133470000     -0.1518350000
H                 -2.1896920000     -1.0009200000      1.7243660000
H                 -3.7874550000     -0.3310450000      1.2679840000
H                 -2.5172110000      0.7416680000      1.8994430000
H                 -3.6178040000     -1.2958040000     -1.0526260000
H                 -2.0307760000     -2.0271020000     -0.6385370000
H                 -2.1903740000     -0.9707930000     -2.0615540000
H                 -0.6194160000      2.2331970000     -0.9662080000
H                  4.0176080000      1.6851750000     -0.3334800000
H                  5.4942440000     -0.1153840000      0.5852170000
H                  4.4509140000     -2.2411790000      1.4281640000
H                  1.9692570000     -2.5107170000      1.3249600000


