%chk=338-PCM.chk
%nproc=8
%mem=30GB
#P UB3LYP/6-311++G(d,p) SCRF=(PCM,Solvent=n,n-DiMethylFormamide)

Quinone PCM in DMF 

0 1
O                 -0.0157950000     -2.6924770000      0.8126190000
C                 -0.0085060000     -1.4774200000      0.7188590000
C                  1.2758040000     -0.7211770000      0.5920860000
C                  2.4238650000     -1.4202060000      0.1957420000
C                  3.6141720000     -0.7451850000     -0.0454200000
C                  3.6758050000      0.6418150000      0.1031290000
C                  2.5535140000      1.3531310000      0.5207610000
C                  1.3672190000      0.6672200000      0.7587660000
S                  0.0116560000      1.6187190000      1.5040640000
O                  0.0193920000      3.0248580000      0.9515400000
C                 -1.3577330000      0.6838910000      0.7629710000
C                 -2.5362740000      1.3842760000      0.5286020000
C                 -3.6684580000      0.6867540000      0.1144380000
C                 -3.6242750000     -0.7009010000     -0.0342800000
C                 -2.4415820000     -1.3904390000      0.2032290000
C                 -1.2838440000     -0.7055220000      0.5960300000
H                  2.3495910000     -2.4930620000      0.0668290000
H                  4.4929820000     -1.2964520000     -0.3588450000
H                  4.5990190000      1.1708790000     -0.1039250000
H                  2.5829350000      2.4291270000      0.6470240000
H                 -2.5521210000      2.4605480000      0.6549390000
H                 -4.5857670000      1.2270720000     -0.0897890000
H                 -4.5107440000     -1.2413310000     -0.3449940000
H                 -2.3808560000     -2.4641190000      0.0740780000





