%chk=234-an.chk
%nproc=8
%mem=30GB
#P UB3LYP/6-311++G(d,p) nosym opt freq

Reduced

-2 1
C          5.73437       -5.24163        1.11858
C          6.68652       -5.11130        0.10091
C          6.56227       -4.08371       -0.84223
C          4.65816       -4.34734        1.19659
C          4.53632       -3.32635        0.25814
C          5.48670       -3.19221       -0.76244
C          3.66261       -4.49872        2.27736
C          2.53523       -3.53016        2.33309
C          2.43304       -2.55385        1.42243
C          3.40935       -2.38020        0.33087
O          3.76991       -5.39893        3.10072
O          3.27680       -1.47512       -0.48161
H          5.82591       -6.03928        1.85527
H          5.38311       -2.39002       -1.49248
Br         8.10786       -6.37029        0.07953
Br         7.79946       -3.82251       -2.25874
C          1.55032       -3.71525        3.44562
H          1.62162       -1.83352        1.43828
H          2.04942       -3.63780        4.41717
H          1.07237       -4.69789        3.37552
H          0.75862       -2.95885        3.41906







