%chk=337-rad.chk
%nproc=8
%mem=30GB
#P UB3LYP/6-311++G(d,p) nosym  opt freq

Radical

-1 2
O                 -0.1404650000     -2.4917790000      0.3234110000
C                 -0.0698690000     -1.2339120000      0.1611860000
C                 -1.2879180000     -0.4262550000      0.1796200000
C                 -2.5301290000     -1.0872740000      0.3801510000
C                 -3.7353360000     -0.4008250000      0.4117740000
C                 -3.7652060000      0.9869480000      0.2436430000
C                 -2.5558840000      1.6684200000      0.0432260000
C                 -1.3460220000      0.9814150000      0.0122420000
S                  0.1124910000      1.9738410000     -0.2454250000
C                  1.4463290000      0.7914810000     -0.2384740000
C                  2.7239870000      1.3089070000     -0.4306460000
C                  3.8467590000      0.4684340000     -0.4397090000
C                  3.6608780000     -0.9045760000     -0.2525330000
C                  2.3875600000     -1.4219420000     -0.0617650000
C                  1.2308830000     -0.5973460000     -0.0467340000
H                 -2.4845640000     -2.1617540000      0.5078430000
H                 -4.6608230000     -0.9482540000      0.5681900000
H                 -4.7014070000      1.5347370000      0.2659540000
H                 -2.5588620000      2.7466860000     -0.0895360000
H                  2.8490640000      2.3783980000     -0.5746950000
H                  4.8368880000      0.8849710000     -0.5901990000
H                  4.5170900000     -1.5738400000     -0.2561550000
H                  2.2203570000     -2.4818820000      0.0848320000





