%chk=248-an.chk
%nproc=8
%mem=30GB
#P UB3LYP/6-311++G(d,p) nosym opt freq

Reduced

-2 1
C                  5.8990610000     -5.5526090000      0.9217940000
C                  6.4220950000     -5.5649110000     -0.3592430000
C                  5.9811300000     -4.6071830000     -1.3054120000
C                  4.9282920000     -4.6068840000      1.3218840000
C                  4.4792780000     -3.6386870000      0.3616820000
C                  5.0297980000     -3.6715060000     -0.9388840000
C                  4.4108610000     -4.6319480000      2.6862530000
C                  3.4236710000     -3.6319860000      2.9914600000
C                  2.9861760000     -2.6774430000      2.0501030000
C                  3.4765720000     -2.6340140000      0.7009830000
O                  4.8229390000     -5.4980800000      3.5411490000
O                  3.0717830000     -1.7702310000     -0.1573790000
H                  7.1686710000     -6.3056830000     -0.6396270000
C                  1.9649390000     -1.6208270000      2.4157290000
H                  6.3882970000     -4.6090780000     -2.3147860000
C                  2.8760610000     -3.6485420000      4.4012200000
C                  0.5060290000     -1.9853630000      2.0626930000
C                 -0.5002530000     -0.8948430000      2.4490100000
C                 -1.9622480000     -1.2238650000      2.1132290000
C                 -2.9536670000     -0.1342600000      2.5373980000
H                  6.2163780000     -6.2714400000      1.6706870000
H                  4.6680080000     -2.9257920000     -1.6398520000
H                  2.2174370000     -0.7105950000      1.8593300000
H                  2.0167740000     -1.3859670000      3.4863840000
H                  3.2321300000     -4.5538250000      4.8973260000
H                  1.7785070000     -3.6305260000      4.4281380000
H                  3.2191720000     -2.7854340000      4.9921290000
H                  0.2344690000     -2.9247400000      2.5618190000
H                  0.4587970000     -2.1731290000      0.9848140000
H                 -0.2229320000      0.0436230000      1.9498000000
H                 -0.4237490000     -0.6954340000      3.5278850000
H                 -2.2366210000     -2.1714910000      2.5943270000
H                 -2.0507590000     -1.3986020000      1.0336470000
H                 -2.9194010000      0.0381740000      3.6198170000
H                 -3.9885770000     -0.3908280000      2.2880590000
H                 -2.7314260000      0.8218880000      2.0489930000


