%chk=130-rad.chk
%nproc=8
%mem=30GB
#P UB3LYP/6-311++G(d,p) nosym opt freq

Radical

-1 2
C         -3.38476        3.50419        0.02107
C         -4.61552        2.83724        0.08127
C         -4.63140        1.43799        0.13435
C         -2.18383        2.78040        0.02755
C         -2.20978        1.38902        0.08780
C         -3.43585        0.71593        0.14012
C         -0.89641        3.50213       -0.03107
C          0.36248        2.72955       -0.02238
C          0.33522        1.33819        0.03789
C         -0.95159        0.61626        0.09428
C          1.59017        3.40484       -0.07641
C          2.79473        2.68924       -0.06421
C          2.75682        1.29043       -0.01038
C          1.53455        0.61666        0.04276
O         -0.87304        4.72628       -0.08560
O         -0.97503       -0.60797        0.14569
C         -5.90675        3.60178        0.05775
H         -5.57767        0.90087        0.17183
H         -3.46537       -0.37151        0.18412
H          1.52235       -0.47112        0.08656
C          4.11365        3.40153       -0.13800
H          3.68166        0.71598       -0.00933
H         -3.35693        4.59212       -0.03009
H          1.60377        4.49306       -0.12708
H         -5.73838        4.67625        0.18465
H         -6.55858        3.27142        0.87311
H         -6.41764        3.44548       -0.89751
H          3.99254        4.48275       -0.01464
H          4.58490        3.21843       -1.10876
H          4.77935        3.05096        0.65747






