%chk=278-an.chk
%nproc=8
%mem=30GB
#P UB3LYP/6-311++G(d,p) nosym opt freq

Reduced

-2 1
C                  0.2662470000      3.9477630000      0.2818300000
C                 -0.8869040000      3.5666750000      0.9452920000
C                 -1.2331880000      2.1934870000      1.0106990000
C                  1.1197740000      3.0074510000     -0.3391170000
C                  0.7718510000      1.6140580000     -0.2693990000
C                 -0.4144760000      1.2527930000      0.4122930000
C                  2.3152200000      3.4789960000     -1.0344160000
C                  3.1049220000      2.4304390000     -1.6042700000
C                  2.7778730000      1.0430390000     -1.5292230000
C                  1.5939520000      0.5776670000     -0.8807750000
O                  2.6038240000      4.7306880000     -1.0939440000
O                  1.2523430000     -0.6692860000     -0.8245450000
H                  0.5621280000      4.9899060000      0.2101980000
H                 -1.5241260000      4.3152250000      1.4138090000
H                 -2.1392720000      1.8824990000      1.5290130000
H                 -0.6489550000      0.1930570000      0.4413020000
S                  4.5863630000      2.9301530000     -2.5076420000
C                  3.6500540000     -0.0152160000     -2.1598170000
H                  3.5716940000     -0.0249300000     -3.2597540000
H                  3.3143120000     -0.9892770000     -1.7960830000
H                  4.7103930000      0.1371070000     -1.9310640000
C                  5.5151750000      3.8742620000     -1.2214960000
C                  6.7437580000      4.5530090000     -1.8214810000
H                  5.8046170000      3.1779740000     -0.4286760000
H                  4.8031160000      4.6004700000     -0.8233670000
H                  7.4317630000      3.8284170000     -2.2726120000
H                  7.3044160000      5.1045920000     -1.0534270000
H                  6.4547440000      5.2685520000     -2.5983360000


