%chk=102-an.chk
%nproc=8
%mem=30GB
#P UB3LYP/6-311++G(d,p) nosym opt freq

Reduced

-2 1
C                  1.9166590000      3.5811880000      3.7585930000
C                  2.9717990000      3.5381850000      2.7729240000
C                  3.4455930000      2.3761000000      2.1924800000
C                  2.9284100000      1.0642000000      2.4981810000
C                  1.3874320000      2.2669050000      4.0546100000
C                  1.8685880000      1.0867730000      3.4566730000
O                  1.5056150000      4.6720860000      4.2844000000
O                  3.3822530000     -0.0126720000      1.9494660000
S                  0.1818500000      2.0878310000      5.3681950000
C                 -1.3729680000      2.7001340000      4.7463080000
C                 -2.5191510000      2.5232740000      5.5402710000
C                 -1.5039330000      3.3585390000      3.5152610000
C                 -2.7521670000      3.8135760000      3.0962470000
C                 -3.7627230000      2.9802980000      5.1134640000
C                 -3.8917000000      3.6299020000      3.8833640000
H                  3.4062390000      4.5013220000      2.5064930000
H                  4.2532940000      2.4222040000      1.4614210000
H                  1.4207790000      0.1344190000      3.7269030000
H                 -2.4292140000      2.0154140000      6.4973840000
H                 -0.6178510000      3.5146810000      2.9125080000
H                 -2.8343930000      4.3268440000      2.1410050000
H                 -4.6403520000      2.8217290000      5.7389130000
H                 -4.8637060000      3.9840810000      3.5484280000


