%chk=221.chk
%nproc=8
%mem=30GB
#P UB3LYP/6-311++G(d,p) nosym opt freq SCRF=(PCM,Solvent=n,n-DiMethylFormamide)

Oxidized

0 1
C                  4.9992020000     -2.4917050000      0.2019770000
C                  5.6902840000     -1.6503070000     -0.6615490000
C                  4.9904480000     -0.8018400000     -1.5244350000
C                  3.6009030000     -2.4938430000      0.2120170000
C                  2.8966880000     -1.6400500000     -0.6562850000
C                  3.6009660000     -0.7967190000     -1.5218110000
C                  2.8865350000     -3.4084100000      1.1504980000
C                  1.3928380000     -3.3825630000      1.1318280000
C                  0.6888360000     -2.5291820000      0.2638050000
C                  1.4063260000     -1.6134210000     -0.6751030000
C                  0.6903390000     -4.2242880000      1.9953080000
C                 -0.7090530000     -2.5310480000      0.2728540000
C                 -1.4032280000     -3.3699510000      1.1332360000
O                  3.4967110000     -4.1480040000      1.9031490000
O                  0.7912570000     -0.8746440000     -1.4259270000
H                  5.5211690000     -3.1568440000      0.8786540000
H                 -2.4850100000     -3.3722830000      1.1410640000
H                  3.0387470000     -0.1477010000     -2.1816820000
H                  1.2347580000     -4.8800820000      2.6625710000
H                 -1.2314810000     -1.8662080000     -0.4035200000
C                 -0.7036180000     -4.2220820000      2.0001770000
H                  5.5319130000     -0.1464680000     -2.1970720000
C                 -1.4029380000     -5.1450990000      2.9469710000
O                 -0.8392650000     -5.8931270000      3.7098690000
O                 -2.7448660000     -5.0498510000      2.8548400000
C                 -3.4977190000     -5.9069890000      3.7346640000
H                 -4.5426020000     -5.6947180000      3.5204160000
H                 -3.2634300000     -5.6812870000      4.7756020000
H                 -3.2670760000     -6.9536480000      3.5329830000
H                  6.7743250000     -1.6525790000     -0.6653400000


