%chk=177-an.chk
%nproc=8
%mem=30GB
#P UB3LYP/6-311++G(d,p) nosym opt freq

Reduced

-2 1
O     2.5661334140    2.5318988028   -0.2107476791
C     2.4157304790    1.1903892572    0.0166597165
C     3.5825484057    0.4399995864    0.2635960730
C     3.4997435351   -0.9030625696    0.4977529324
C     2.3166054385   -1.5954723502    0.5093145853
C     1.1615566047   -0.8433075503    0.2631846933
C    -0.1160997640   -1.5586518766    0.2698352125
O    -0.1133028404   -2.7907005266    0.4921802567
C    -1.3298402785   -0.8034019804    0.0175309728
C    -2.5757348022   -1.4437485010    0.0136918521
C    -3.7254771650   -0.7410056149   -0.2230272928
C    -3.7193887005    0.6226812473   -0.4682412171
C    -2.4944722216    1.2569733446   -0.4653210788
C    -1.3357513781    0.5474336029   -0.2265178674
C    -0.0487315494    1.2574331731   -0.2313059611
O    -0.0579161470    2.4821104821   -0.4529304314
C     1.1944947393    0.5207896080    0.0204637506
H     1.9087623348    3.2114057727   -0.3961503288
H     4.5190325913    0.9646610112    0.2586641914
H     4.4301567605   -1.4458562361    0.6846446555
H     2.2777153152   -2.6592993341    0.6973381014
H    -2.5672047388   -2.5060045614    0.2059676671
H    -4.6834567459   -1.2307645390   -0.2264519536
H    -4.6437583184    1.1617816601   -0.6538951851
H    -2.4613449684    2.3337180917   -0.6562356653


