%chk=338-an.chk
%nproc=8
%mem=30GB
#P UB3LYP/6-311++G(d,p) nosym opt freq

Reduced

-2 1
O                 -0.0169530000     -2.5771310000     -0.4865830000
C                 -0.0089360000     -1.3283260000     -0.1546210000
C                  1.2227780000     -0.6193960000      0.0917480000
C                  2.4510030000     -1.3525950000      0.0974430000
C                  3.6497110000     -0.7886710000      0.4736580000
C                  3.7192610000      0.5758730000      0.8653010000
C                  2.5568520000      1.3359850000      0.8055570000
C                  1.3320480000      0.7841130000      0.4086380000
S                  0.0115400000      1.9523860000      0.1587410000
O                  0.0125010000      2.4763490000     -1.3022350000
C                 -1.3221990000      0.8002910000      0.4128890000
C                 -2.5388890000      1.3669600000      0.8138610000
C                 -3.7103350000      0.6211340000      0.8771710000
C                 -3.6587740000     -0.7440120000      0.4848050000
C                 -2.4682750000     -1.3224930000      0.1046690000
C                 -1.2311160000     -0.6044730000      0.0954280000
H                  2.3805350000     -2.3958770000     -0.1923860000
H                  4.5541470000     -1.3957650000      0.4782310000
H                  4.6586870000      1.0206400000      1.1822120000
H                  2.5892270000      2.3964560000      1.0509370000
H                 -2.5575210000      2.4276880000      1.0595880000
H                 -4.6432090000      1.0773000000      1.1972060000
H                 -4.5705710000     -1.3399760000      0.4918880000
H                 -2.4115120000     -2.3664610000     -0.1856940000


