%chk=262.chk
%nproc=8
%mem=30GB
#P UB3LYP/6-311++G(d,p) nosym opt freq SCRF=(PCM,Solvent=n,n-DiMethylFormamide)

Oxidized

0 1
C                  3.6677520000     -1.3648870000      0.2900990000
C                  2.5453500000     -0.5934330000     -0.3350300000
O                  2.2278170000     -0.5796880000     -1.4893050000
O                  1.8889860000      0.1526920000      0.6291300000
C                  0.7020450000      0.7750310000      0.2925050000
C                  0.7269580000      2.1632230000      0.2016750000
C                 -0.4404130000      2.8695930000     -0.0653350000
C                 -1.6391560000      2.1874770000     -0.2421600000
C                 -1.6711360000      0.7977840000     -0.1447490000
C                 -2.9878290000      0.1099000000     -0.3269740000
O                 -4.0093720000      0.7281920000     -0.5765900000
C                 -3.0141260000     -1.3614840000     -0.1864570000
C                 -1.9056600000     -2.0586660000      0.0885460000
C                 -0.5736420000     -1.4251580000      0.2585360000
O                  0.3911830000     -2.1341440000      0.4987510000
C                 -0.4965820000      0.0598880000      0.1279440000
H                  4.2265010000     -0.7414640000      0.9896250000
H                  4.3217670000     -1.7515800000     -0.4886770000
H                  3.2323940000     -2.1955980000      0.8511430000
H                  1.6733390000      2.6707870000      0.3424930000
H                 -0.4117060000      3.9504670000     -0.1380030000
H                 -2.5624530000      2.7117700000     -0.4533210000
H                 -3.9818350000     -1.8327300000     -0.3189390000
H                 -1.9101800000     -3.1379700000      0.1950940000


