%chk=023.chk
%nproc=8
%mem=30GB
#P UB3LYP/6-311++G(d,p) nosym opt freq

Oxidized

0 1
C                 -2.6040930000     -1.7731690000     -0.1673690000
O                 -2.3378090000     -0.4652990000     -0.7237870000
C                 -1.2973140000      0.2811890000     -0.3359010000
C                 -1.4156990000      1.6279640000     -0.2611050000
Br                -3.0684520000      2.4759880000     -0.5990310000
C                 -0.2714150000      2.5154160000      0.0899240000
O                 -0.4009460000      3.7175060000      0.1722420000
C                  1.0400930000      1.8518570000      0.3346650000
C                  1.2116430000      0.5132860000      0.2238150000
O                  2.3925550000     -0.0406350000      0.5220250000
C                  2.9222180000     -1.1748010000     -0.2017350000
C                  0.0391320000     -0.3620840000     -0.1085100000
O                  0.1694090000     -1.5695360000     -0.1920410000
Br                 2.4795150000      2.9774290000      0.8100440000
H                 -2.3680310000     -1.7979900000      0.8974890000
H                 -3.6736460000     -1.9174670000     -0.3112800000
H                 -2.0378310000     -2.5396010000     -0.6910160000
H                  4.0000620000     -1.1066980000     -0.0634140000
H                  2.5396530000     -2.1074600000      0.2058590000
H                  2.6809560000     -1.1058940000     -1.2634530000


