%chk=329-rad.chk
%nproc=8
%mem=30GB
#P UB3LYP/6-311++G(d,p) nosym  opt freq

Radical

-1 2
C                 -0.6391020000      2.6800380000     -0.9636970000
C                 -1.7134620000      2.0641820000     -0.3716120000
C                 -1.5877330000      0.7511620000      0.1576070000
C                  0.6254870000      2.0266510000     -1.0650100000
C                  0.7510630000      0.6956710000     -0.5279240000
C                 -0.3841650000      0.0912760000      0.0776480000
C                  1.7443580000      2.6280330000     -1.6643310000
C                  2.9706460000      1.9702140000     -1.7520930000
C                  3.0949290000      0.6373810000     -1.2138520000
C                  1.9975530000      0.0409180000     -0.6231170000
C                  4.1132670000      2.6093540000     -2.3747840000
C                  5.3385490000      1.8472190000     -2.4163200000
C                  5.4787860000      0.5748400000     -1.9090900000
C                  4.3866240000     -0.1100020000     -1.2828340000
O                  4.1143930000      3.7803490000     -2.8800960000
O                  4.4837760000     -1.2667370000     -0.8115010000
O                  6.3714800000      2.5000990000     -3.0109880000
H                 -0.7357440000      3.6833840000     -1.3679010000
H                 -2.6668170000      2.5791340000     -0.3048600000
H                 -2.4440850000      0.2744490000      0.6233670000
H                 -0.2807660000     -0.9122980000      0.4799250000
H                  1.6717040000      3.6295280000     -2.0750230000
H                  2.1210880000     -0.9619390000     -0.2272070000
H                  6.4315220000      0.0615340000     -1.9756950000
H                  5.9589500000      3.3578300000     -3.2568730000


