%chk=078-an.chk
%nproc=8
%mem=30GB
#P UB3LYP/6-311++G(d,p) nosym opt freq

Reduced

-2 1
C          0.53094        1.72000       -2.18959
C         -0.88391        2.10240       -2.38834
C         -1.86868        1.20303       -2.34359
C         -1.58416       -0.21789       -2.08671
C         -0.17982       -0.60000       -1.86346
C          0.82089        0.29457       -1.89277
O          1.39532        2.57934       -2.29532
O         -2.48477       -1.04417       -2.04866
C          3.26229        0.67085       -1.21661
C          4.27793        0.99247       -2.14107
C          3.29366        1.16562        0.10472
C          4.33224        2.03339        0.47015
C          5.31050        1.84788       -1.73445
C          5.33204        2.37022       -0.44184
H         -1.07457        3.15163       -2.58332
H         -2.90737        1.47171       -2.49519
H         -0.01719       -1.65505       -1.66312
H          4.37675        2.44866        1.47496
H          6.10652        2.11802       -2.42521
H          6.13530        3.03921       -0.14237
C          2.18321       -0.25180       -1.62918
O          2.43419       -1.45115       -1.71621
C          2.24667        0.81021        1.12258
H          2.04621       -0.26594        1.11797
H          1.32035        1.35611        0.91977
H          2.57458        1.06659        2.13588
C          4.28446        0.43590       -3.53741
H          3.33471        0.64469       -4.04013
H          4.45737       -0.64456       -3.51448
H          5.07681        0.88728       -4.14418











