%chk=045-an.chk
%nproc=8
%mem=30GB
#P UB3LYP/6-311++G(d,p) nosym opt freq

Reduced

-2 1
C                 -1.2707550000      1.8504550000     -0.8573910000
C                 -2.5384250000      1.1892930000     -0.7923080000
C                 -2.8653750000      0.1242960000      0.0506950000
C                 -1.8634730000     -0.3928500000      0.9578930000
C                 -0.5921140000      0.2604510000      0.8841900000
C                 -0.2653620000      1.3257620000      0.0416340000
O                 -1.0651640000      2.8394740000     -1.6785530000
O                 -2.0700170000     -1.3794480000      1.7816180000
C                  1.1443220000      1.9522550000      0.0348710000
C                  1.0430490000      3.4533510000      0.4070750000
C                  2.1104600000      1.2877750000      1.0343830000
C                  1.7609280000      1.8266830000     -1.3800590000
C                 -4.2647350000     -0.5247260000      0.0328380000
C                 -5.2224690000      0.1216000000     -0.9864650000
C                 -4.9122820000     -0.3924980000      1.4347260000
C                 -4.1353990000     -2.0269280000     -0.3203690000
H                 -3.2765970000      1.5950740000     -1.4782210000
H                  0.1463600000     -0.1461410000      1.5693100000
H                  0.3592540000      3.9479410000     -0.2854600000
H                  2.0327870000      3.9370470000      0.3659210000
H                  0.6554940000      3.5615360000      1.4265530000
H                  1.7445140000      1.3682560000      2.0633270000
H                  3.0919310000      1.7784490000      0.9855120000
H                  2.2526090000      0.2249660000      0.8144700000
H                  2.7393200000      2.3270460000     -1.4305190000
H                  1.9036900000      0.7698580000     -1.6358450000
H                  1.0785770000      2.2775770000     -2.1044910000
H                 -4.8399320000      0.0407680000     -2.0088370000
H                 -5.3808970000      1.1840700000     -0.7738610000
H                 -6.1990690000     -0.3796920000     -0.9491590000
H                 -5.0584700000      0.6651870000      1.6820820000
H                 -4.2502900000     -0.8410710000      2.1779140000
H                 -5.8967020000     -0.8878820000      1.4621990000
H                 -3.7416220000     -2.1417480000     -1.3374510000
H                 -5.1126630000     -2.5296890000     -0.2721050000
H                 -3.4439140000     -2.4973460000      0.3826640000


