%chk=237-rad.chk
%nproc=8
%mem=30GB
#P UB3LYP/6-311++G(d,p) nosym  opt freq

Radical

-1 2
C                  5.7215850000     -5.3074830000      1.2083360000
C                  6.6742140000     -5.2033050000      0.2146880000
C                  6.5621210000     -4.1813570000     -0.7358730000
C                  4.6479400000     -4.4036560000      1.2740230000
C                  4.5231240000     -3.3523410000      0.3049880000
C                  5.5180230000     -3.2601620000     -0.7156410000
C                  3.6771550000     -4.5968180000      2.3764070000
C                  2.5931400000     -3.6634470000      2.4199760000
C                  2.4602090000     -2.6520020000      1.4997540000
C                  3.3708310000     -2.4174190000      0.4118850000
O                  3.8083780000     -5.5293550000      3.2155660000
O                  3.1612430000     -1.4581080000     -0.3854620000
H                  5.7634970000     -6.0801920000      1.9670450000
C                  5.5283850000     -2.2075690000     -1.8122710000
H                  7.5031900000     -5.9038970000      0.1669410000
H                  7.3108930000     -4.0959870000     -1.5202790000
H                  1.8706310000     -3.7900140000      3.2215630000
H                  1.6269290000     -1.9571060000      1.5564840000
H                  4.6863690000     -1.5289580000     -1.7214370000
H                  5.4954310000     -2.6913920000     -2.7961060000
H                  6.4610110000     -1.6318430000     -1.7698960000


