%chk=050.chk
%nproc=8
%mem=30GB
#P UB3LYP/6-311++G(d,p) opt freq Int=Acc2E=11

Oxidized

0 1
 C                  2.93049000    1.48108500   -1.51622700
 C                  1.91333600    0.58592200   -2.15261700
 C                  1.48113700   -0.50824200   -1.48941800
 C                  2.02663900   -0.83555600   -0.13835400
 C                  3.05244700    0.05154500    0.49024900
 C                  3.46204500    1.16335900   -0.15715200
 O                  3.33047800    2.47495900   -2.10761900
 O                  1.62719400   -1.83192400    0.44845400
 C                  4.48459300    2.12791300    0.40541100
 C                  3.56084600   -0.35720900    1.84540700
 C                  1.42922000    0.98524200   -3.52239700
 C                  0.46003300   -1.47244100   -2.02046400
 C                  5.89636600    1.74534300    0.01837600
 H                  4.37292000    2.18793100    1.48819000
 H                  4.26898500    3.11978000   -0.00293000
 H                  3.26097300   -1.37977800    2.06843700
 H                  3.14585500    0.28815400    2.62777800
 H                  4.64854700   -0.27905400    1.89457000
 H                  1.97176800    1.86237600   -3.86999800
 H                  0.36203000    1.22704500   -3.50781900
 H                  1.57178000    0.17686500   -4.24435300
 H                  0.03866100   -1.14120900   -2.96771300
 H                 -0.34871500   -1.60619300   -1.29763600
 H                  0.90533800   -2.46221500   -2.16074600
 C                  6.97115900    1.62791600    0.81017400
 C                  6.96598000    1.85407400    2.30247900
 C                  8.31493300    1.26186900    0.21217900
 C                  9.37131100    2.38219100    0.28210700
 C                 10.69752600    1.97593900   -0.37302800
 C                 11.83949000    3.00509400   -0.25191800
 C                 13.16281000    2.38382900   -0.74312000
 C                 14.42450500    3.21421100   -0.47160800
 C                 15.70981100    2.49400900   -0.90112100
 C                 17.02559200    3.22838500   -0.57276900
 C                 18.22809600    2.30032100   -0.83910700
 C                 19.58575600    2.81654200   -0.34391300
 C                 11.51085300    4.31257700   -0.98873900
 C                 20.71739200    1.80164600   -0.55312600
 C                 22.09280300    2.22025100    0.00091500
 C                 22.66354200    3.45602800   -0.71001200
 C                 23.08365000    1.05014500   -0.07879600
 H                  6.03259900    1.57063300   -1.04670100
 H                  5.96364100    1.96086200    2.71718700
 H                  7.52510700    2.75853900    2.56513000
 H                  7.45828900    1.02179700    2.81814700
 H                  8.17585900    0.97195400   -0.83425400
 H                  8.70879100    0.37703300    0.73167500
 H                  9.55912500    2.65292400    1.32779500
 H                  8.96190600    3.27460500   -0.20204200
 H                 10.52557100    1.75824600   -1.43612800
 H                 11.03220100    1.03301300    0.07783900
 H                 11.96129100    3.23860300    0.81609300
 H                 13.08393800    2.18571700   -1.82106100
 H                 13.28315900    1.40361300   -0.26476100
 H                 14.48126800    3.44140400    0.60158100
 H                 14.35078100    4.17646000   -0.98598000
 H                 15.67208900    2.29832400   -1.98176100
 H                 15.73378500    1.50930900   -0.41751800
 C                 17.14665000    4.55585200   -1.33685000
 H                 18.28849500    2.09728800   -1.91735900
 H                 18.03017500    1.33258700   -0.36117300
 H                 19.51095200    3.05595600    0.72549700
 H                 19.83369000    3.75303200   -0.85179700
 H                 10.58987300    4.76713400   -0.61648300
 H                 11.38146200    4.12836600   -2.06153700
 H                 12.30492700    5.05360600   -0.87210900
 H                 20.81887700    1.58581200   -1.62591400
 H                 20.42819200    0.85396100   -0.08128100
 H                 21.95934500    2.47354800    1.06198400
 H                 22.01580300    4.32947700   -0.60322900
 H                 22.79075800    3.26260600   -1.78133600
 H                 23.64377000    3.72258400   -0.30354300
 H                 22.71228100    0.17500600    0.46283600
 H                 24.05425400    1.32105600    0.34743600
 H                 23.25083500    0.75078500   -1.11956100
 H                 17.01662400    3.45604000    0.50336900
 H                 17.15926900    4.37821200   -2.41852600
 H                 18.06320600    5.09057300   -1.07719000
 H                 16.31165800    5.22603000   -1.11986600

















