%chk=253-rad.chk
%nproc=8
%mem=30GB
#P UB3LYP/6-311++G(d,p) nosym opt freq Int=Acc2E=11

Radical

-1 2
 C                 -5.85140200   -2.79072700    3.69489700
 C                 -6.58888400   -3.20664400    2.60057300
 C                 -7.52111600   -2.33219900    2.00783000
 C                 -6.01588900   -1.49863600    4.23268500
 C                 -6.95399400   -0.61931300    3.63579000
 C                 -7.69650200   -1.05987600    2.52231500
 C                 -5.21812400   -1.08544900    5.39770100
 C                 -5.44271300    0.25667100    5.89913800
 C                 -6.35395800    1.12023400    5.30195600
 C                 -7.15898100    0.73718000    4.16254100
 O                 -4.38372600   -1.87428600    5.92275200
 O                 -7.99877000    1.52320800    3.63948100
 H                 -6.45039600   -4.20604900    2.19806000
 H                 -8.10051900   -2.65768000    1.14855900
 C                 -4.62910200    0.67169100    7.10179100
 H                 -5.12724900   -3.44151800    4.17148600
 H                 -8.40666400   -0.36509900    2.08851100
 H                 -3.90959000    1.46319000    6.85321600
 H                 -4.06798500   -0.18917300    7.46590600
 H                 -5.26361000    1.05367600    7.90827500
 C                 -6.57711100    2.53179100    5.81943200
 C                 -7.69672600    2.60118100    6.82747500
 C                 -7.71418900    3.17555700    8.03919400
 C                 -8.97003400    3.12378400    8.88653400
 C                 -9.67354900    4.49409100    9.06431300
 C                -10.87313400    4.41028600    9.96533400
 C                -12.16762200    4.59732900    9.66958900
 C                 -6.54218200    3.89862900    8.66031800
 C                -13.22475800    4.42858000   10.74277800
 C                -14.14306400    3.19653200   10.54116800
 C                -15.19725400    3.09181000   11.60746600
 C                -15.37919200    2.12810300   12.52177800
 C                -12.68338500    4.98053900    8.30356200
 C                -14.52883300    0.88606000   12.63447500
 C                -16.50930600    2.23745800   13.52612000
 C                -16.04160600    2.48321400   14.98301200
 C                -17.19159200    2.53331600   15.94993200
 C                -17.61431600    3.55754300   16.70482100
 C                -16.95821600    4.91644000   16.74528100
 C                -18.82060500    3.38981300   17.60720600
 C                -20.06687000    4.19406800   17.15836500
 C                -21.21647300    4.04310000   18.11547700
 C                -22.42033900    3.49118700   17.90657600
 C                -22.87796100    2.91253100   16.58976200
 C                -23.43310900    3.42942200   19.03259500
 C                -23.71137800    1.99876000   19.55910600
 C                -24.75467600    1.98358400   20.64167100
 C                -24.62781500    1.62855100   21.92828600
 C                -23.34968900    1.12479400   22.55361400
 C                -25.82118100    1.70621400   22.85956900
 C                -25.71632900    2.81648500   23.93553200
 C                -26.89033600    2.81103400   24.87489300
 C                -27.82521700    3.75386200   25.06083000
 C                -27.85714300    5.07932700   24.33937400
 C                -28.94134200    3.52961500   26.06139500
 H                 -6.87295800    3.14167100    4.95802700
 H                 -5.65160700    2.94649600    6.22318600
 H                 -8.60678100    2.10838700    6.49056200
 H                 -8.72571900    2.72931700    9.88390000
 H                 -9.68243800    2.42444300    8.43973200
 H                 -9.93391100    4.88121700    8.07676400
 H                 -8.96038100    5.20567300    9.49898100
 H                -10.64038200    4.13545300   10.99516200
 H                 -5.62827600    3.78532400    8.07786100
 H                 -6.34502500    3.51973200    9.67138600
 H                 -6.73582100    4.97392000    8.76085900
 H                -13.85560100    5.32813000   10.78027900
 H                -12.74230800    4.34420900   11.72117000
 H                -13.52077100    2.30035100   10.49732800
 H                -14.63862000    3.27708400    9.56607200
 H                -15.89303700    3.93156500   11.63291700
 H                -11.88484300    5.14677800    7.58179600
 H                -13.28248700    5.89774800    8.36332000
 H                -13.33842400    4.20469900    7.89240500
 H                -13.75732300    0.82791200   11.86792300
 H                -15.15257500   -0.01215100   12.55162700
 H                -14.03014900    0.83115300   13.60825200
 H                -17.10659300    1.31539600   13.50452500
 H                -17.18051200    3.05115400   13.23586900
 H                -15.44998700    3.40083400   15.01019900
 H                -15.36825300    1.67124100   15.28318200
 H                -17.75432700    1.60206900   16.02413300
 H                -16.07067000    4.97898000   16.11681000
 H                -16.66220400    5.16665300   17.77115600
 H                -17.64875800    5.70179100   16.41940500
 H                -18.55717700    3.69950700   18.62799600
 H                -19.09271700    2.33177600   17.66281100
 H                -20.33865500    3.88298200   16.14733300
 H                -19.80250000    5.25666300   17.09527600
 H                -21.01961700    4.43137900   19.11537000
 H                -22.13675300    3.01674600   15.79826500
 H                -23.79835600    3.40622100   16.25570200
 H                -23.11212000    1.84673100   16.68377700
 H                -24.38269100    3.86474700   18.69212500
 H                -23.08948900    4.04545400   19.86864600
 H                -22.77004200    1.56177800   19.89933500
 H                -24.06098800    1.37377700   18.72838800
 H                -25.73989500    2.32150100   20.31858300
 H                -22.52803300    1.04894300   21.84235900
 H                -23.50612500    0.13262800   22.99349600
 H                -23.02120800    1.77880000   23.36843800
 H                -25.94812000    0.74083100   23.36833400
 H                -26.73153500    1.87352300   22.27666200
 H                -25.60403200    3.78028700   23.43416800
 H                -24.80115300    2.66242500   24.52006400
 H                -26.98240300    1.90183900   25.46987600
 H                -27.01077000    5.21953400   23.66790100
 H                -27.85492200    5.90562200   25.06015300
 H                -28.77096900    5.18637100   23.74517600
 H                -28.98383000    4.38057100   26.75499000
 H                -28.71929200    2.64549300   26.66592000
 C                -30.34159200    3.34838400   25.42277800
 C                -31.41953500    3.17657200   26.45693400
 C                -32.20425300    2.11402700   26.68652600
 C                -32.16688000    0.83524100   25.88550700
 C                -33.22382400    2.15030400   27.80747300
 C                -32.88763500    1.22067200   29.00095800
 C                -33.95449800    1.24454400   30.06030400
 C                -33.87375300    1.67716500   31.32671200
 C                -32.62021800    2.22602800   31.96366400
 C                -35.09089400    1.62118400   32.22820000
 C                -35.68408600    3.00799900   32.58276000
 C                -36.84983400    2.90441800   33.52680400
 C                -38.12960300    3.24114800   33.31759600
 C                -38.66916100    3.82752000   32.03710300
 C                -39.16575700    3.05288300   34.39939700
 H                -30.30508200    2.50225400   24.73309700
 H                -30.57572900    4.23239100   24.81723200
 H                -31.55797700    4.04116900   27.10687700
 H                -31.44646700    0.86441700   25.06880300
 H                -33.15382200    0.62606700   25.45599200
 H                -31.91412100   -0.02238400   26.51801800
 H                -34.20875500    1.86619000   27.41251900
 H                -33.32127400    3.17337000   28.18202900
 H                -31.91290200    1.50587100   29.40280700
 H                -32.78288800    0.19222300   28.63459300
 H                -34.92137500    0.86319200   29.73050300
 H                -31.76256100    2.22043200   31.29185500
 H                -32.35590000    1.63933100   32.85149600
 H                -32.76644100    3.25682800   32.30352900
 H                -34.82708200    1.10737600   33.16266700
 H                -35.87244500    1.02137000   31.75302800
 H                -35.95920400    3.51942700   31.65760400
 H                -34.90594500    3.62035600   33.05454500
 H                -36.60203900    2.48538200   34.50231400
 H                -37.91371000    3.93600900   31.25958400
 H                -39.10753300    4.81559000   32.22162500
 H                -39.47524400    3.20008800   31.63885300
 H                -38.73268800    2.62727700   35.30689000
 H                -39.97083600    2.38947400   34.06114800
 H                -39.63766100    4.00752500   34.66167100

































































