%chk=222.chk
%nproc=8
%mem=30GB
#P UB3LYP/6-311++G(d,p) nosym opt freq

Oxidized

-1 1
O                 -1.7483180000     -2.7388900000     -1.4658590000
S                 -2.8293540000     -2.3153860000     -0.5492590000
O                 -2.9699100000     -3.0920020000      0.6991290000
O                 -4.1228750000     -2.0454070000     -1.2319240000
C                 -2.3231090000     -0.6001810000     -0.0152940000
C                 -3.3547480000      0.3403760000      0.0080270000
C                 -3.1097330000      1.6848810000      0.2796320000
C                 -1.8090020000      2.1257800000      0.4729040000
C                 -0.7531530000      1.2102460000      0.4346860000
C                  0.6298070000      1.7564300000      0.5317500000
O                  0.8444910000      2.9386540000      0.7722280000
C                  1.7571680000      0.8194670000      0.2616980000
C                  3.0580540000      1.3128080000      0.1080680000
C                  4.1049370000      0.4385220000     -0.1546130000
C                  3.8622500000     -0.9368320000     -0.2454330000
C                  2.5769890000     -1.4343530000     -0.0654410000
C                  1.5165760000     -0.5570500000      0.1768880000
C                  0.1425340000     -1.1151030000      0.4164450000
O                  0.0216830000     -2.2575410000      0.8002220000
C                 -1.0075920000     -0.1722840000      0.2473400000
H                 -4.3519840000     -0.0115850000     -0.2259470000
H                 -3.9342190000      2.3901520000      0.3031910000
H                 -1.5785590000      3.1714100000      0.6346500000
H                  3.2196470000      2.3803810000      0.1964750000
H                  5.1112580000      0.8213510000     -0.2873710000
H                  4.6807290000     -1.6179190000     -0.4532580000
H                  2.3664330000     -2.4959260000     -0.1110750000


