%chk=217-an-PCM.chk
%nproc=8
%mem=30GB
#P UB3LYP/6-311++G(d,p) SCRF=(PCM,Solvent=n,n-DiMethylFormamide)

Reduced 

-2 1
C                  4.9781580000     -2.0291060000      0.5191700000
C                  5.7402030000     -1.3225570000     -0.4121790000
C                  5.1079290000     -0.6126770000     -1.4839930000
C                  3.5848740000     -2.0405390000      0.4433760000
C                  2.9211960000     -1.3250180000     -0.6285330000
C                  3.7413060000     -0.6264860000     -1.5631730000
C                  2.8380290000     -2.7871770000      1.4619160000
C                  1.3816420000     -2.7525740000      1.2877760000
C                  0.7524370000     -2.0259780000      0.2025530000
C                  1.4892590000     -1.2877430000     -0.7928080000
C                  0.5885900000     -3.4474660000      2.2016780000
C                 -0.6716020000     -2.0530050000      0.1279260000
C                 -1.4478360000     -2.7317220000      1.0284260000
O                  3.3978210000     -3.4066790000      2.4001090000
O                  0.9177970000     -0.6514910000     -1.7475900000
H                  5.4462560000     -2.5755160000      1.3292870000
S                  7.4651080000     -1.3913410000     -0.3407540000
H                 -2.5288740000     -2.7294990000      0.9635540000
H                  3.2206220000     -0.0928510000     -2.3507770000
H                  1.0869930000     -3.9838300000      3.0003510000
H                 -1.1182480000     -1.4956760000     -0.6882190000
C                 -0.8028200000     -3.4370590000      2.0956820000
S                 -1.7551970000     -4.3700770000      3.1944780000
O                 -1.0602380000     -4.6764580000      4.4516890000
O                 -3.1419820000     -3.8811620000      3.2749910000
O                 -1.8719400000     -5.8627450000      2.3759240000
C                 -2.6349980000     -6.8609590000      3.0522950000
H                 -2.1922900000     -7.1029920000      4.0242920000
H                 -2.6098500000     -7.7445130000      2.4101420000
H                 -3.6725490000     -6.5376670000      3.1904780000
H                  5.7137060000     -0.0648000000     -2.1951510000
O                  7.9784250000     -1.7585550000      0.9855140000
O                  8.0916170000     -0.2510740000     -1.0307010000
O                  7.8027200000     -2.7351080000     -1.3362090000
C                  9.1890150000     -3.0373630000     -1.4884550000
H                  9.6480040000     -3.2751510000     -0.5229840000
H                  9.7250210000     -2.2041000000     -1.9558450000
H                  9.2354850000     -3.9132960000     -2.1397680000





