%chk=263-an.chk
%nproc=8
%mem=30GB
#P UB3LYP/6-311++G(d,p) nosym opt freq SCF=YQC

Reduced

-2 1
C         -1.28515        2.80934        0.21903
C         -2.62469        2.42280        0.15307
C         -2.94601        1.09054       -0.08226
C         -0.24949        1.87536        0.02358
C         -0.57654        0.53450       -0.24453
C         -1.92737        0.14513       -0.26051
C          1.18144        2.28386        0.10716
C          2.20658        1.23271       -0.03415
C          1.89303       -0.02368       -0.34291
C          0.49808       -0.43423       -0.56462
O          1.56356        3.43021        0.29757
O          0.27834       -1.53948       -1.03979
O         -1.00748        4.12031        0.47882
H         -3.99055        0.78265       -0.11483
H          2.65110       -0.78652       -0.47949
C         -2.37064       -1.25116       -0.41644
O         -3.16403       -1.61667       -1.26612
O         -1.89690       -1.96070        0.63645
C         -2.26724       -3.33886        0.60447
H         -3.42729        3.14187        0.29658
H          3.23541        1.54746        0.10201
H         -1.82165        4.64291        0.55585
H         -1.76436       -3.84405        1.43370
H         -1.94423       -3.80614       -0.33142
H         -3.34837       -3.44430        0.73737












