%chk=086-PCM.chk
%nproc=8
%mem=30GB
#P UB3LYP/6-311++G(d,p) SCRF=(PCM,Solvent=n,n-DiMethylFormamide)

Quinone PCM in DMF 

0 1
C                  2.6085190000      1.5507490000     -0.2055610000
O                  2.4800860000      0.1869900000      0.2459400000
C                  1.3056980000     -0.4678890000      0.1702680000
C                  1.3007130000     -1.7961580000     -0.0556810000
C                  0.0498420000     -2.5720240000     -0.0839380000
O                  0.0635210000     -3.7779040000     -0.2994540000
C                 -1.2207590000     -1.8547440000      0.1120930000
C                 -1.2574670000     -0.5273810000      0.3407540000
O                 -2.4409350000      0.0721190000      0.5727130000
C                 -2.6908740000      1.4281260000      0.1497110000
C                  0.0232540000      0.2464870000      0.5026690000
O                  0.0259140000      1.3837700000      0.9362520000
H                  3.6727150000      1.6831770000     -0.3941850000
H                  2.0536190000      1.7064160000     -1.1339080000
H                  2.2643630000      2.2484420000      0.5545140000
H                  2.2239370000     -2.3348980000     -0.2293610000
H                 -2.1329030000     -2.4361850000      0.0604250000
H                 -2.2755810000      1.6072610000     -0.8450190000
H                 -3.7757260000      1.5118390000      0.1087290000
H                 -2.2779360000      2.1418060000      0.8589420000





