%chk=226-an.chk
%nproc=8
%mem=30GB
#P UB3LYP/6-311++G(d,p) nosym opt freq SCRF=(PCM,Solvent=n,n-DiMethylFormamide)

Reduced

-4 1
O                 -6.0293070000      0.3211210000     -1.1639830000
S                 -5.3289560000      0.6139620000      0.1266700000
O                 -5.1800580000      2.0792440000      0.3752950000
O                 -5.9757020000     -0.0956880000      1.2780710000
C                 -3.6721840000     -0.0681020000     -0.0284870000
C                 -3.5256390000     -1.4580560000     -0.3162770000
C                 -2.2642960000     -1.9816890000     -0.4441560000
C                 -1.0836700000     -1.1933920000     -0.3008660000
C                  0.2052120000     -1.8030130000     -0.4786560000
O                  0.3460100000     -3.0543260000     -0.8147580000
C                  1.3261630000     -0.9334700000     -0.2503460000
C                  2.6531470000     -1.4440000000     -0.3641190000
C                  3.7660900000     -0.6704990000     -0.1494750000
C                  3.5995440000      0.7020340000      0.2041240000
C                  2.3414260000      1.2397730000      0.3203440000
C                  1.1696860000      0.4652600000      0.1002320000
C                 -0.1221290000      1.0904960000      0.2274580000
O                 -0.2623580000      2.3487320000      0.5108360000
C                 -1.2451740000      0.2122080000      0.0215580000
C                 -2.5646290000      0.7285850000      0.1374410000
S                  5.0640650000      1.7061430000      0.4828180000
O                  5.8329730000      1.7027940000     -0.8030120000
O                  4.5933440000      3.0744890000      0.8589260000
O                  5.8317810000      1.0444080000      1.5855050000
H                 -4.4017490000     -2.0877800000     -0.4299880000
H                 -2.1326200000     -3.0395660000     -0.6529730000
H                  2.7610640000     -2.4890430000     -0.6296300000
H                  4.7600870000     -1.0950250000     -0.2408490000
H                  2.2173510000      2.2795810000      0.5904650000
H                 -2.6794730000      1.7788180000      0.3658320000





