%chk=293.chk
%nproc=8
%mem=30GB
#P UB3LYP/6-311++G(d,p) nosym opt freq

Oxidized

0 1
C   -0.4493077    1.1647224   -0.6330086
  C   -1.5457647    0.4401124   -0.1601747
  C   -1.3619115   -0.8329949    0.3805590
  C    0.8455044    0.6174757   -0.5671018
  C    1.0311960   -0.6652216   -0.0242497
  C   -0.0811181   -1.3862645    0.4491843
  C    2.0205891    1.3715604   -1.0587847
  C    3.3903139    0.7856347   -0.9716503
  C    3.5818416   -0.4605877   -0.4465970
  C    2.3980185   -1.2363865    0.0424654
  O    1.8702519    2.4868912   -1.5367336
  O    2.5601766   -2.3546553    0.5115843
  O    4.4317578    1.5182388   -1.4267003
  H   -0.6135983    2.1513176   -1.0479317
  H   -2.5392094    0.8666767   -0.2123890
  H   -2.2130257   -1.3921531    0.7473939
  H    0.0389146   -2.3754374    0.8730000
  H    4.3294272    2.4017614   -1.8066333
  C    4.9380015   -1.1636224   -0.2993303
  C    6.2087883   -0.4065485   -0.7190496
  H    4.8914461   -2.1109594   -0.8799289
  H    5.0532764   -1.4209765    0.7767861
  H    6.2869905    0.5235387   -0.1142448
  H    6.1650010   -0.1573495   -1.8015754
  C    7.4611061   -1.2581641   -0.4669209
  C    8.7412437   -0.4732892   -0.7986793
  C   10.0404675   -1.2171436   -0.5471748
  C   11.2456013   -0.5252200   -0.7501867
  C   10.0979716   -2.5547909   -0.1066171
  C   11.3300906   -3.1740609    0.1184690
  C   12.5300110   -2.4850578   -0.0879681
  C   12.4774921   -1.1446883   -0.5167404
  O   13.6906757   -3.1420799    0.1819230
  C   14.9626770   -2.8871934   -0.2262570
  C   15.2716563   -2.2067818   -1.4227179
  C   16.0114286   -3.3608854    0.5745841
  C   17.3426176   -3.1420852    0.2093557
  C   16.6058012   -1.9889489   -1.7844899
  C   17.6399529   -2.4527078   -0.9677374
  H    7.4065062   -2.1765280   -1.0919092
  H    7.4897550   -1.5442680    0.6078790
  H    8.7502680    0.4424482   -0.1672567
  H    8.7139683   -0.1632223   -1.8662110
  H   11.2304511    0.5076366   -1.0771431
  H    9.2030386   -3.1336238    0.0704364
  H   11.3522038   -4.2013716    0.4606470
  H   13.3746365   -0.5601130   -0.6557867
  H   14.4965594   -1.8550195   -2.0878506
  H   15.7922169   -3.8978616    1.4891308
  H   18.1431284   -3.5083113    0.8392508
  H   16.8385849   -1.4642276   -2.7021012
  H   18.6712196   -2.2842837   -1.2500387






