%chk=092.chk
%nproc=8
%mem=30GB
#P UB3LYP/6-311++G(d,p) nosym opt freq

Oxidized

0 1
  C    4.3912222    3.1352709    1.5526999
  C    3.2264773    2.2787214    1.1442516
  C    3.4038747    0.9282758    0.9872225
  C    4.7715261    0.3656673    1.2360996
  C    5.9173710    1.2114774    1.6376619
  C    5.7483444    2.5474465    1.7931477
  O    4.2247509    4.3371614    1.6900337
  O    4.9650768   -0.8355378    1.1059756
  C    6.8614530    4.6740398    2.3668909
  C    8.3316142    1.0685678    2.1983285
  H    7.8935473    4.9589597    2.6567077
  H    6.1773227    4.9629956    3.1924776
  H    6.6027534    5.2135290    1.4312918
  H    9.0638126    0.2371662    2.2534469
  H    8.2677148    1.5388452    3.2023662
  C    2.3779664   -0.1509117    0.5739749
  C    0.9128599    0.0956065    0.2584521
  C    0.0605446   -0.8949782   -0.1132957
  C   -1.3862110   -0.5052391   -0.4002653
  C   -2.2934651   -1.6690791   -0.8324266
  C   -3.7092558   -1.2114024   -1.0876738
  C   -4.7097480   -2.0338066   -1.4846209
  C   -6.0842398   -1.4121403   -1.6914281
  C   -7.1763645   -2.3972871   -2.1400107
  C   -8.5074211   -1.7070597   -2.3093158
  C   -9.6380587   -2.3399233   -2.6947164
  C  -10.9056949   -1.5390926   -2.8236426
  C    0.5030585   -2.3436441   -0.2465090
  C   -4.4887024   -3.5183580   -1.7172881
  C   -9.6998151   -3.8180332   -3.0046476
  H    2.3804206   -0.8934807    1.4018177
  H    2.8035320   -0.6198790   -0.3400655
  H    0.4781781    1.0708437    0.3139129
  H   -1.3895535    0.2578979   -1.2100758
  H   -1.8127824   -0.0474589    0.5198129
  H   -2.3142088   -2.4338655   -0.0268633
  H   -1.8911741   -2.1115074   -1.7689030
  H   -3.9341508   -0.1567713   -0.9402665
  H   -5.9953766   -0.6122028   -2.4597653
  H   -6.4033051   -0.9480118   -0.7317596
  H   -7.2889619   -3.1922280   -1.3719680
  H   -6.8843481   -2.8481189   -3.1127392
  H   -8.5577650   -0.6389219   -2.1072749
  H  -10.7691955   -0.7347412   -3.5771389
  H  -11.1644843   -1.0828291   -1.8446467
  H    1.5700225   -2.5205123   -0.0149916
  H    0.3387732   -2.6903919   -1.2872529
  H   -0.0838726   -2.9781902    0.4487202
  H   -3.4494585   -3.8531093   -1.5351490
  H   -4.7309733   -3.7714379   -2.7698888
  H   -5.1415596   -4.1049118   -1.0389646
  H   -8.7294306   -4.3393095   -2.8879970
  H  -10.0362304   -3.9586470   -4.0531774
  H  -10.4302870   -4.3049033   -2.3251882
  H  -11.7533885   -2.1808214   -3.1456347
  O    7.1049168    0.5575913    1.8280248
  O    6.8170671    3.3118182    2.1620198
  C    1.9078369    2.9822865    0.9269363
  H    8.6922093    1.7959675    1.4405756
  H    1.5873597    2.8601019   -0.1282551
  H    1.9617297    4.0759580    1.0984023
  H    1.1575991    2.6032960    1.6510511











