%chk=113-PCM.chk
%nproc=8
%mem=30GB
#P UB3LYP/6-311++G(d,p) SCRF=(PCM,Solvent=n,n-DiMethylFormamide)

Quinone PCM in DMF 

0 1
O                  1.1984250000      1.6506640000      1.8466600000
C                  0.6527820000      0.8434890000      1.0932530000
C                 -0.7718190000      0.6431170000      1.1150990000
C                 -1.4634180000     -0.0868610000      0.1774250000
N                 -2.8158060000     -0.2180710000      0.2024960000
C                 -3.5458720000      0.2452270000      1.3928510000
C                 -4.9564810000     -0.3402140000      1.4339040000
C                 -5.7974530000      0.0997570000      0.2200020000
C                 -4.9000550000      0.2865320000     -1.0212480000
C                 -3.6457120000     -0.5901700000     -0.9672230000
C                 -0.6528090000     -0.8461980000     -0.8669150000
O                 -1.1983680000     -1.6540920000     -1.6195960000
C                  0.7717150000     -0.6454710000     -0.8890390000
C                  1.4632890000      0.0847840000      0.0484710000
N                  2.8156240000      0.2164820000      0.0229330000
C                  3.5454180000     -0.2457280000     -1.1680130000
C                  4.9550070000      0.3421240000     -1.2102870000
C                  5.7978170000     -0.0964190000      0.0028330000
C                  4.9017030000     -0.2855690000      1.2446330000
C                  3.6458100000      0.5890100000      1.1923160000
H                 -1.2775760000      1.2232710000      1.8738560000
H                 -3.5882790000      1.3445300000      1.4152320000
H                 -2.9839990000     -0.0693310000      2.2758050000
H                 -5.4337800000     -0.0391170000      2.3701430000
H                 -4.8767600000     -1.4313650000      1.4630650000
H                 -6.5706640000     -0.6486290000      0.0239110000
H                 -6.3203710000      1.0350250000      0.4410040000
H                 -5.4487420000      0.0504280000     -1.9371050000
H                 -4.5874940000      1.3323490000     -1.1085190000
H                 -3.0559030000     -0.4689700000     -1.8686950000
H                 -3.9133520000     -1.6509200000     -0.9140590000
H                  1.2775900000     -1.2257490000     -1.6476310000
H                  3.5895970000     -1.3449540000     -1.1904250000
H                  2.9822760000      0.0679250000     -2.0504670000
H                  5.4319720000      0.0419240000     -2.1469860000
H                  4.8733120000      1.4331370000     -1.2393070000
H                  6.5695330000      0.6535770000      0.1986600000
H                  6.3226040000     -1.0304860000     -0.2188130000
H                  5.4507180000     -0.0491580000      2.1602100000
H                  4.5910490000     -1.3319970000      1.3314220000
H                  3.0569580000      0.4658350000      2.0941660000
H                  3.9115100000      1.6502860000      1.1399980000





