%chk=235.chk
%nproc=8
%mem=30GB
#P UB3LYP/6-311++G(d,p) nosym opt freq

Oxidized

0 1
 C                  5.79545800   -5.28199200    1.11833700
 C                  6.73561500   -5.15847100    0.09915000
 C                  6.60696600   -4.13136700   -0.84936100
 C                  4.72777100   -4.39104400    1.19891400
 C                  4.59978600   -3.36831600    0.25443200
 C                  5.53991500   -3.24157800   -0.76598200
 C                  3.72873200   -4.52934700    2.29545200
 C                  2.58847000   -3.56171400    2.35537000
 C                  2.44875200   -2.58774100    1.41993000
 C                  3.46004500   -2.41525100    0.33300400
 O                  3.83364600   -5.41459200    3.12947400
 O                  3.35025400   -1.51846500   -0.46421300
 H                  5.88189300   -6.06764700    1.85723800
 H                  5.42746500   -2.44437800   -1.48883700
 Br                 8.16812500   -6.41204800    0.05003400
 Br                 7.85231600   -3.90043400   -2.27122600
 C                  1.64783200   -3.78990200    3.50523100
 C                  1.32282100   -1.59296300    1.37553800
 H                  2.21471000   -3.98902800    4.41625100
 H                  1.03735000   -4.68163700    3.32732200
 H                  0.98540200   -2.94485600    3.67673600
 H                  0.49159800   -1.87444400    2.01751800
 H                  0.96089800   -1.48536300    0.35146100
 H                  1.67758700   -0.60165000    1.67648000






























