%chk=293-an.chk
%nproc=8
%mem=30GB
#P UB3LYP/6-311++G(d,p) nosym opt freq SCF=YQC

Reduced

-2 1
 C                 -0.15786900    1.28057700   -0.76353800
 C                 -0.91223100    1.23148400    0.39263100
 C                 -0.46406200    0.46935800    1.49839500
 C                  1.06874200    0.57989200   -0.87559400
 C                  1.52651300   -0.19417500    0.24925000
 C                  0.73423700   -0.22263600    1.41145800
 C                  1.84326000    0.63622800   -2.08321700
 C                  3.06612100   -0.11028300   -2.07857800
 C                  3.53559600   -0.87658000   -1.01948000
 C                  2.78898700   -0.94676400    0.21030300
 O                  1.53803600    1.29757900   -3.15200500
 O                  3.19392300   -1.62485500    1.20770100
 O                  3.76706700   -0.00344900   -3.25586200
 H                 -0.48183500    1.85778200   -1.62349900
 H                 -1.85065000    1.77813600    0.45422000
 H                 -1.05599900    0.42892300    2.40931500
 H                  1.10575500   -0.81353300    2.24247300
 H                  3.16182100    0.58781600   -3.76491400
 C                  4.83465600   -1.63351000   -1.12473300
 C                  6.04526400   -0.84611700   -0.58505200
 H                  5.02287300   -1.89722200   -2.17131300
 H                  4.74087300   -2.55647900   -0.54113700
 H                  5.84773600   -0.58428600    0.46019300
 H                  6.13228500    0.09547300   -1.14191000
 C                  7.36479100   -1.62269600   -0.68327700
 C                  8.56607900   -0.82720600   -0.16066100
 C                  9.91760100   -1.52294300   -0.16260000
 C                 10.99973500   -0.93729900    0.51237700
 C                 10.15429500   -2.73441600   -0.81918700
 C                 11.41650700   -3.33234900   -0.81345800
 C                 12.46890300   -2.72679800   -0.13834900
 C                 12.26118300   -1.52429600    0.53845100
 O                 13.67305700   -3.41354100   -0.07324500
 C                 14.87248300   -2.76403100   -0.29728500
 C                 15.00257400   -1.68882600   -1.17786400
 C                 15.99259100   -3.29016400    0.34749200
 C                 17.24856100   -2.73866000    0.10763100
 C                 16.26464600   -1.13400700   -1.39285500
 C                 17.38962300   -1.65379700   -0.75656600
 H                  7.53370800   -1.90481800   -1.73084000
 H                  7.27209600   -2.55996700   -0.11958900
 H                  8.35143800   -0.50106200    0.86474500
 H                  8.65439800    0.09835100   -0.74574600
 H                 10.84593600   -0.00244000    1.04379100
 H                  9.34608700   -3.22673200   -1.34579000
 H                 11.59095600   -4.27364200   -1.32198600
 H                 13.07809800   -1.05773100    1.07650800
 H                 14.13099700   -1.29271300   -1.68523100
 H                 15.86479500   -4.12814000    1.02451300
 H                 18.12057000   -3.15187400    0.60828400
 H                 16.36709900   -0.29095500   -2.07057500
 H                 18.36898300   -1.21767700   -0.93101300











