%chk=010-rad.chk
%nproc=8
%mem=30GB
#P UB3LYP/6-311++G(d,p) nosym  opt freq

Radical

-1 2
Cl   -3.1408623864    0.6756945857    0.1074713468
C    -1.4376056449    0.2578527711    0.0492314345
C    -1.0073873738   -0.9854675198    0.0354107312
C     0.4127087331   -1.3150256802   -0.0131609417
O     0.8186578400   -2.5129570330   -0.0261774882
C     1.4273484725   -0.2688449266   -0.0488711463
C     0.9930051700    0.9797515629   -0.0349151459
C    -0.4281579509    1.3096369234    0.0136953083
O    -0.7812736806    2.5190332615    0.0248942023
Cl    3.1481185037   -0.6467462722   -0.1077361539
H    -1.7682069357   -1.7773416934    0.0621961166
H     1.7636552530    1.7644140206   -0.0620382636


