%chk=100-an.chk
%nproc=8
%mem=30GB
#P UB3LYP/6-311++G(d,p) nosym opt freq

Reduced

-2 1
C          2.34852        3.46164        2.79061
C          3.48065        3.44867        1.84921
C          3.46763        2.76205        0.70159
C          2.24201        1.95562        0.36783
C          1.11045        1.96739        1.30994
C          1.12357        2.65383        2.45767
O          2.40134        4.13628        3.81674
O          2.18854        1.28251       -0.65926
N          0.10151        2.69591        3.40116
C         -1.30574        2.45682        3.13819
C         -2.09339        2.53308        4.43491
N          4.49034        2.71916       -0.24139
C          5.89916        2.94393        0.02662
C          6.68741        2.88172       -1.27048
H          4.32602        4.05656        2.14422
H          0.26522        1.35922        1.01510
H          0.29375        3.41898        4.10372
H         -1.44698        1.46585        2.69332
H         -1.68495        3.20502        2.43348
H         -1.73356        1.79235        5.15687
H         -3.15492        2.34351        4.24830
H         -1.99847        3.52232        4.89521
H          4.29508        1.99858       -0.94578
H          6.27182        2.18201        0.72004
H          6.04784        3.92675        0.48682
H          6.58386        1.90122       -1.74732
H          7.75044        3.05837       -1.07979
H          6.33528        3.63778       -1.98026









