%chk=319.chk
%nproc=8
%mem=30GB
#P UB3LYP/6-311++G(d,p) nosym opt freq SCRF=(PCM,Solvent=n,n-DiMethylFormamide)

Oxidized

0 1
C                 -0.9243570000      3.9444170000     -0.6070760000
C                 -2.0604330000      3.1581490000     -0.1315310000
C                 -1.9096050000      1.8716350000      0.2549790000
C                  0.4711450000      3.2360180000     -0.6406880000
C                  0.5482870000      1.8207520000     -0.1841060000
C                 -0.5906390000      1.2214570000      0.2220900000
O                  1.4426490000      3.8465720000     -1.0288450000
O                 -1.0125940000      5.0995470000     -0.9701580000
C                  1.9103450000      1.1786870000     -0.2150470000
C                  1.9931740000     -0.2735940000      0.2578620000
C                  3.4192970000     -0.8340030000      0.1911080000
C                  3.5165430000     -2.2872850000      0.6629820000
C                 -3.0753130000      1.0372650000      0.7186760000
C                 -3.4998520000     -0.0319890000     -0.3094350000
C                 -4.6653590000     -0.8982820000      0.1814720000
C                 -5.1005940000     -1.9507800000     -0.8419540000
H                 -3.0235860000      3.6565390000     -0.1065260000
H                 -0.5576150000      0.1914360000      0.5618200000
H                  2.5894590000      1.8033130000      0.3784170000
H                  2.2962620000      1.2602150000     -1.2387760000
H                  1.3340370000     -0.9031300000     -0.3529630000
H                  1.6279290000     -0.3513410000      1.2895700000
H                  4.0818010000     -0.2066740000      0.7989770000
H                  3.7888580000     -0.7578240000     -0.8382550000
H                  3.1872280000     -2.3898430000      1.7018460000
H                  4.5437760000     -2.6565470000      0.6034700000
H                  2.8918200000     -2.9456480000      0.0510180000
H                 -3.9258370000      1.6892340000      0.9356340000
H                 -2.8064440000      0.5390300000      1.6589770000
H                 -2.6457740000     -0.6760530000     -0.5501620000
H                 -3.7792350000      0.4676520000     -1.2440610000
H                 -5.5165700000     -0.2519960000      0.4263870000
H                 -4.3788500000     -1.3929480000      1.1173880000
H                 -5.4253540000     -1.4835840000     -1.7766720000
H                 -5.9328540000     -2.5506160000     -0.4643210000
H                 -4.2802480000     -2.6346090000     -1.0811850000


