%chk=281-an.chk
%nproc=8
%mem=30GB
#P UB3LYP/6-311++G(d,p) nosym opt freq

Reduced

-2 1
C                  3.2765400000     -0.2690400000     -0.0982000000
C                  1.7742160000     -0.3770860000     -0.1397280000
C                  0.9809330000      0.7788960000      0.1538510000
O                  1.4982410000      1.9295030000      0.4498360000
C                 -0.4623860000      0.5708720000      0.0947460000
C                 -1.3347890000      1.6438890000      0.3687080000
C                 -2.7160580000      1.5187260000      0.3286340000
C                 -3.2889740000      0.2575460000     -0.0019190000
C                 -2.4720200000     -0.8200640000     -0.2772810000
C                 -1.0510580000     -0.7227600000     -0.2440210000
C                 -0.2271050000     -1.8439220000     -0.5305680000
O                 -0.6203470000     -3.0675940000     -0.8481090000
C                  1.1645450000     -1.5980970000     -0.4595210000
O                  1.9197040000     -2.7252910000     -0.7482910000
H                  3.7288150000     -1.0535650000      0.5380830000
H                  3.5368280000      0.7255300000      0.2968740000
H                  3.7356850000     -0.3790660000     -1.1016040000
H                 -0.8638300000      2.5912680000      0.6149880000
H                 -3.3556500000      2.3728640000      0.5470450000
H                 -4.3727450000      0.1438960000     -0.0376030000
H                 -2.8904190000     -1.7901530000     -0.5315050000
H                  1.1674320000     -3.3564250000     -0.9138390000





