%chk=279-an.chk
%nproc=8
%mem=30GB
#P UB3LYP/6-311++G(d,p) nosym opt freq

Reduced

-2 1
O                 -1.2741030000      2.5794300000      0.3530530000
C                 -1.2422580000      1.2972540000      0.2267170000
C                 -2.4130470000      0.4842670000      0.1982660000
C                 -2.3541060000     -0.9029360000      0.0607840000
O                 -3.4958910000     -1.6859930000      0.0353110000
C                 -1.1629340000     -1.6601820000     -0.0681820000
O                 -1.2747170000     -2.9706420000     -0.1881730000
C                  0.0411810000     -0.8990890000     -0.0461440000
C                  1.3129310000     -1.5331710000     -0.1466860000
C                  2.4929600000     -0.8174090000     -0.1313970000
C                  2.4650790000      0.5989530000     -0.0092620000
C                  1.2410760000      1.2435520000      0.1021300000
C                  0.0140370000      0.5523450000      0.0959190000
H                 -3.3800930000      0.9742580000      0.2898200000
H                  1.3157500000     -2.6155880000     -0.2385500000
H                  3.4479920000     -1.3358300000     -0.2207260000
H                  3.3942450000      1.1668650000     -0.0006940000
H                  1.1823450000      2.3242080000      0.2004220000
H                 -3.0609720000     -2.5731620000     -0.0707830000


