%chk=083.chk
%nproc=8
%mem=30GB
#P UB3LYP/6-311++G(d,p) nosym opt freq

Oxidized

0 1
C                  1.5177800000      1.3046880000     -0.6438780000
C                  0.2641860000      1.8710810000     -0.1075390000
C                 -0.7197260000      1.0734720000      0.3096840000
C                 -0.5959230000     -0.4059420000      0.2539020000
C                  0.6465110000     -1.0301460000     -0.2780320000
C                  1.6482300000     -0.2081370000     -0.7024420000
O                  2.4171610000      2.0264000000     -1.0239500000
O                 -1.5349620000     -1.0848850000      0.6501600000
C                  0.6378960000     -2.5445430000     -0.2769370000
O                  2.8506190000     -0.5029600000     -1.2145000000
C                  3.3456690000     -1.8265910000     -1.4344110000
H                  0.2092320000      2.9533330000     -0.0814990000
H                 -1.6560810000      1.4461450000      0.7093520000
H                 -0.3197280000     -2.8775180000      0.1204860000
H                  1.4214810000     -2.9646100000      0.3558250000
H                  0.7434230000     -2.9627660000     -1.2788700000
H                  4.3408380000     -1.6812720000     -1.8507040000
H                  2.7295460000     -2.3681450000     -2.1523010000
H                  3.4225580000     -2.3842970000     -0.5007350000





