%chk=194.chk
%nproc=8
%mem=30GB
#P UB3LYP/6-311++G(d,p) nosym opt freq

Oxidized

-1 1
C          5.12709       -2.88894       -0.42830
C          5.90739       -2.02454       -1.19739
C          5.37966       -0.81083       -1.63191
C          3.80277       -2.54601       -0.08391
C          3.27196       -1.32492       -0.52122
C          4.07090       -0.45995       -1.29795
C          2.97583       -3.46381        0.73204
C          1.55946       -3.11415        1.10896
C          1.01788       -1.86411        0.66030
C          1.88404       -0.95225       -0.16763
C          0.73612       -3.98612        1.89900
C         -0.57298       -3.61126        2.21861
C         -0.32824       -1.52586        1.01534
C         -1.08634       -2.40254        1.78128
O          3.48215       -4.51396        1.08802
O          1.46558        0.11965       -0.57038
O          1.13839       -5.18805        2.37915
H          5.56172       -3.82604       -0.10362
H          6.92250       -2.29673       -1.45645
H          5.98488       -0.14037       -2.22842
H          1.98841       -5.62087        2.27328
O         -0.95880       -0.38156        0.65883
H         -2.10255       -2.13092        2.04098
H         -0.61666        0.34786        0.13665
H          3.68513        0.48915       -1.64849
S         -1.62016       -4.69208        3.20863
O         -1.74708       -6.13039        2.68479
O         -1.17028       -4.87709        4.66534
O         -3.08235       -4.24092        3.34544








