%chk=234-an.chk
%nproc=8
%mem=30GB
#P UB3LYP/6-311++G(d,p) nosym opt freq

Reduced

-2 1
C                  5.7189390000     -5.2310110000      1.1313470000
C                  6.6534660000     -5.1031990000      0.1310530000
C                  6.5217900000     -4.0666020000     -0.8353960000
C                  4.6181880000     -4.3502390000      1.2437110000
C                  4.4888690000     -3.2869350000      0.2610640000
C                  5.4644940000     -3.1889560000     -0.7535400000
C                  3.6696660000     -4.5390500000      2.3216540000
C                  2.6063950000     -3.5865070000      2.3260900000
C                  2.4938430000     -2.5582880000      1.3698500000
C                  3.3938250000     -2.3298440000      0.2930060000
O                  3.7764700000     -5.4847900000      3.2010130000
O                  3.2676100000     -1.3797310000     -0.5732900000
H                  5.7885880000     -6.0160280000      1.8767820000
H                  5.3387410000     -2.3830240000     -1.4685640000
Br                 8.1259750000     -6.3843950000      0.0690790000
Br                 7.8183100000     -3.8274090000     -2.2746090000
C                  1.5784750000     -3.7189860000      3.4214580000
H                  1.6509480000     -1.8687180000      1.4417540000
H                  2.0446730000     -3.6533190000      4.4150650000
H                  1.0929120000     -4.7050130000      3.3947000000
H                  0.8079930000     -2.9424870000      3.3396130000





