%chk=180-an.chk
%nproc=8
%mem=30GB
#P UB3LYP/6-311++G(d,p) nosym opt freq

Reduced

-2 1
C                 -1.5851530000      1.9273350000     -4.7080970000
C                 -1.5188080000      0.5727750000     -4.9335490000
C                 -1.2001300000     -0.3165260000     -3.8660020000
C                 -1.3428460000      2.4846020000     -3.4138170000
C                 -1.0228660000      1.5825200000     -2.3290480000
C                 -0.9614430000      0.1968300000     -2.6068100000
C                 -1.4075190000      3.8648000000     -3.1798180000
C                 -0.7633860000      2.0513640000     -0.9825750000
C                 -1.1780750000      4.3823680000     -1.8822080000
C                 -0.8665250000      3.4901330000     -0.7810680000
C                 -1.2804690000      5.8400400000     -1.6755030000
C                 -1.0766870000      6.3227160000     -0.3756460000
C                 -0.7844670000      5.4508590000      0.6947290000
C                 -0.6799240000      4.0991990000      0.4984210000
O                 -1.7070770000      4.7014890000     -4.2285270000
O                 -0.4615810000      1.2275990000     -0.0485020000
H                 -1.8249990000      2.6135220000     -5.5130980000
H                 -1.7083420000      0.1779740000     -5.9304010000
H                 -1.1442900000     -1.3880340000     -4.0458420000
H                 -0.7128880000     -0.4495860000     -1.7710650000
H                 -0.6436260000      5.8389730000      1.7004820000
O                 -1.5577770000      6.6301580000     -2.6757470000
O                 -0.5105230000      3.2990230000      1.6607020000
C                  0.6571970000      2.6592450000      1.8655830000
C                  0.4478720000      1.5030110000      2.8172940000
O                  1.7322790000      2.9923970000      1.4222760000
H                 -1.1535070000      7.3943980000     -0.2141460000
H                 -1.6979850000      5.6273140000     -3.7930160000
H                 -0.0272460000      0.7162940000      2.2264810000
H                 -0.2253020000      1.7867660000      3.6312970000
H                  1.4069530000      1.1633430000      3.2115560000


