%chk=340-an-PCM.chk
%nproc=8
%mem=30GB
#P UB3LYP/6-311++G(d,p) SCRF=(PCM,Solvent=n,n-DiMethylFormamide)

Reduced 

-2 1
O                  2.2493520000      2.7693130000     -0.2510220000
C                  2.3512200000      1.4131840000     -0.1489140000
C                  3.5918560000      0.8302410000      0.0726180000
C                  3.7209070000     -0.5663010000      0.1934310000
C                  2.5801070000     -1.3703810000      0.0813980000
C                  1.3282620000     -0.8108920000     -0.1555170000
C                  0.1178630000     -1.6540120000     -0.4679220000
C                 -1.1762570000     -1.0306580000     -0.0095460000
C                 -2.2761810000     -1.7964660000      0.3646880000
C                 -3.5186080000     -1.2014620000      0.6153910000
C                 -3.6488260000      0.1949450000      0.4940710000
C                 -2.5621630000      0.9820540000      0.1366260000
O                 -2.7097250000      2.3340570000      0.0363910000
C                 -1.2838920000      0.3876460000     -0.1347260000
C                 -0.1283190000      1.1987050000     -0.3970630000
O                 -0.2517530000      2.5318570000     -0.5067580000
C                  1.1728930000      0.6032710000     -0.2775970000
H                  1.2559100000      2.9345830000     -0.3734140000
H                  4.4590290000      1.4809970000      0.1498230000
H                  4.7008890000     -1.0159920000      0.3355920000
H                  2.6758040000     -2.4535830000      0.1350770000
H                  0.2297230000     -2.6680370000     -0.0744740000
H                  0.0617780000     -1.7547780000     -1.5810840000
H                 -2.1755740000     -2.8792160000      0.4183510000
H                 -4.3826010000     -1.8129430000      0.8652280000
H                 -4.6010780000      0.6860420000      0.6769920000
H                 -1.7806180000      2.6678270000     -0.1976380000





