%chk=163-rad-PCM.chk
%nproc=8
%mem=30GB
#P UB3LYP/6-311++G(d,p) SCRF=(PCM,Solvent=n,n-DiMethylFormamide)

Reduced 

-1 2
 C                 -1.84178600    2.03593000   -5.12153000
 C                 -1.80631800    0.71582700   -5.51813800
 C                 -1.43042300   -0.28921700   -4.60322200
 C                 -1.50284100    2.39961900   -3.79608600
 C                 -1.12528000    1.39067800   -2.87679100
 C                 -1.09676100    0.04989600   -3.30578500
 C                 -1.54396200    3.78163900   -3.39524400
 C                 -0.75876500    1.69096500   -1.48011500
 C                 -1.18850600    4.11496900   -2.02530800
 C                 -0.79984000    3.11070900   -1.06546800
 C                 -1.21896600    5.46278700   -1.60207000
 C                 -0.89674500    5.85687100   -0.32503700
 C                 -0.51941000    4.89285700    0.61132200
 C                 -0.47541300    3.55780900    0.24060300
 O                 -1.89021100    4.69556300   -4.24240300
 O                 -0.43564400    0.77204500   -0.71411800
 H                 -2.12720700    2.82443500   -5.80641800
 H                 -2.06824300    0.44884100   -6.53704300
 H                 -1.40355300   -1.32704300   -4.91865600
 H                 -0.80437500   -0.70095000   -2.58196400
 Br                 0.06704900    2.38236700    1.66926400
 N                 -1.61318100    6.49683000   -2.56972400
 S                 -0.98583600    7.64040100    0.06336300
 O                 -0.04618000    8.23111300   -0.93608200
 O                 -2.40793000    7.96543300   -0.25714900
 O                 -0.59686300    7.78348100    1.47249800
 H                 -0.26668700    5.20618700    1.61481500
 H                 -1.81369400    5.91053100   -3.49867900
 H                 -0.85845800    7.19493200   -2.62638600
 H                 -2.41024200    7.02009700   -2.18111000





































