%chk=018-an.chk
%nproc=8
%mem=30GB
#P UB3LYP/6-311++G(d,p) nosym opt freq

Reduced

-2 1
 C   -1.5397412    0.6906515    1.4339490
  C   -2.8040217    1.1737988    0.7705388
  C   -2.8090014    1.1341529   -0.6002120
  C   -1.6256467    0.6426887   -1.3636450
  C   -0.3570649    0.1705013   -0.7005547
  C   -0.3531592    0.2074106    0.6702760
  O   -1.7129700    0.6344876   -2.5813228
  O   -1.4571223    0.6868660    2.6519768
 Cl    0.9876188   -0.2844836    1.7244302
 Cl   -4.1473740    1.6321760   -1.6545452
  C    0.8245781   -0.3114482   -1.6283877
  C    1.2639280    0.8509199   -2.5547222
  C    2.1131489   -0.7808760   -0.9133283
  C    0.3575637   -1.5183691   -2.4805879
  C   -3.9796196    1.6711511    1.6979221
  C   -3.4933730    2.8671936    2.5554010
  C   -5.2577127    2.1672761    0.9820832
  C   -4.4405700    0.5136270    2.6191540
  H    0.4599655    1.2153675   -3.2194748
  H    2.0940057    0.5331962   -3.2229328
  H    1.6188871    1.7113367   -1.9471011
  H    2.5725046    0.0433915   -0.3277730
  H    2.8829393   -1.0955708   -1.6522327
  H    1.9213301   -1.6707932   -0.2776231
  H    0.0631989   -2.3621587   -1.8195930
  H    1.1736688   -1.8708281   -3.1486755
  H   -0.4998905   -1.2893513   -3.1389930
  H   -2.6429708    2.6210740    3.2166990
  H   -4.3047173    3.2326497    3.2222180
  H   -3.1809108    3.7073596    1.8981302
  H   -5.0459312    3.0530591    0.3466017
  H   -6.0213896    2.4975479    1.7205329
  H   -5.7345203    1.3535398    0.3961175
  H   -3.6431175    0.1317254    3.2820226
  H   -4.8113358   -0.3373297    2.0076384
  H   -5.2652796    0.8441616    3.2878816












