%chk=040-rad.chk
%nproc=8
%mem=30GB
#P UB3LYP/6-311++G(d,p) nosym  opt freq

Radical

-1 2
C                  0.9528910000      1.7109840000      0.0135190000
C                 -0.2839060000      0.9643180000      0.0068660000
C                 -0.3331320000     -0.4042200000     -0.0110880000
C                  0.9026220000     -1.1788370000     -0.0242380000
C                  2.1631680000     -0.4413530000     -0.0175480000
C                  2.1874020000      0.9381930000      0.0006630000
C                  3.4628410000      1.7431280000      0.0080990000
C                  3.4248050000     -1.2761260000     -0.0324930000
O                  0.9632070000      2.9778770000      0.0295830000
O                  0.8673630000     -2.4474730000     -0.0404980000
C                 -1.6029220000     -1.2336540000     -0.0188670000
C                 -2.9210640000     -0.5010280000     -0.0036620000
C                 -4.1381150000     -1.0615580000     -0.0083230000
C                 -4.3700200000     -2.5523400000     -0.0302090000
C                 -5.3936140000     -0.2234670000      0.0084230000
H                 -1.1805780000      1.5754200000      0.0168750000
H                  4.3539010000      1.1135260000      0.0202820000
H                  3.4906080000      2.4106700000      0.8763380000
H                  3.5093390000      2.3998430000     -0.8682230000
H                  3.1488970000     -2.3310400000     -0.0484060000
H                  4.0481780000     -1.0936200000      0.8514260000
H                  4.0453470000     -1.0662480000     -0.9121640000
H                 -1.5468580000     -1.9260340000      0.8313010000
H                 -1.5528110000     -1.9009760000     -0.8892300000
H                 -2.8835770000      0.5841280000      0.0127840000
H                 -3.4391950000     -3.1192640000     -0.0413540000
H                 -4.9553950000     -2.8437250000     -0.9125140000
H                 -4.9504780000     -2.8702710000      0.8461570000
H                 -5.1628760000      0.8442250000      0.0238850000
H                 -6.0130140000     -0.4501330000      0.8868050000
H                 -6.0186730000     -0.4234130000     -0.8724390000





