%chk=093-an.chk
%nproc=8
%mem=30GB
#P UB3LYP/6-311++G(d,p) nosym opt freq SCF=YQC

Reduced

-2 1
 C                 17.50960300    1.31987000    0.15777300
 C                 16.80952400    0.23459700    0.82857600
 C                 16.24868600    0.40356900    2.08342300
 C                 16.30272600    1.66946200    2.79256400
 C                 16.95803400    2.76436700    2.09881800
 C                 17.52724900    2.59799000    0.85159100
 O                 18.07293700    1.17302500   -0.97250600
 O                 15.80562700    1.81177900    3.95519300
 C                 17.72911500    4.09427000   -0.97640600
 C                 15.87894800    4.63345600    3.08260100
 C                 16.75735800   -1.08348500    0.09384200
 H                 18.37894300    4.91784400   -1.28517500
 H                 16.69786200    4.46810600   -0.89273400
 H                 17.77417600    3.28353000   -1.70690300
 H                 16.16088800    5.56552800    3.58012700
 H                 15.28517600    4.01068300    3.75511600
 H                 15.29563000    4.87447700    2.18153300
 C                 15.55522900   -0.72864300    2.82293800
 C                 14.06166500   -0.71350800    2.61707000
 C                 13.24794000   -1.69435400    2.19803200
 C                 11.76072500   -1.43987200    2.04447500
 C                 11.28109400   -1.36007300    0.57157400
 C                  9.78812600   -1.23417600    0.45501800
 C                  9.05832800   -0.21189300   -0.01515000
 C                  7.54464300   -0.29874600   -0.02570600
 C                  6.84141200    0.66851900    0.95934400
 C                  5.34286100    0.58078900    0.87439300
 C                  4.46445400    0.21574200    1.81947300
 C                  2.97960300    0.19625400    1.51539600
 C                 13.69986400   -3.09560200    1.85895700
 C                  9.64092100    1.06625800   -0.56808700
 C                  4.84543200   -0.19891700    3.22053800
 C                  2.16321600    1.27932400    2.26523100
 C                  0.68648900    1.17228700    2.00108000
 C                 -0.12469700    2.04114000    1.38042600
 C                 -1.59906500    1.72759500    1.22065500
 C                 -2.04195500    1.44842600   -0.23808500
 C                 -3.52703600    1.23702500   -0.35064600
 C                 -4.19753400    0.13304500   -0.71044700
 C                 -5.71298100    0.13935100   -0.74080300
 C                 -6.37724200   -0.72558200    0.36069800
 C                 -7.87693900   -0.74388300    0.24412200
 C                 -8.79342800   -0.25078100    1.08947900
 C                -10.26962200   -0.36668500    0.76461100
 C                -10.94929200    0.97716500    0.39690800
 C                -12.43177300    0.82966800    0.18884200
 C                -13.14430300    0.97756100   -0.93733400
 C                  0.31899300    3.37110100    0.82053400
 C                 -3.54599700   -1.16589400   -1.11948200
 C                 -8.46978300    0.42572000    2.39984700
 C                -12.55721800    1.36095600   -2.27438000
 C                -14.64561000    0.76793100   -0.91980400
 C                -15.12507600   -0.49266500   -1.68297800
 C                -16.62352600   -0.61987700   -1.69204100
 C                -17.39039100   -1.57678700   -1.14942100
 C                -16.85650300   -2.75929300   -0.37652900
 C                -18.89851500   -1.51003700   -1.28105900
 C                -19.51497300   -2.62567500   -2.16192800
 C                -21.01707200   -2.56157200   -2.20122500
 C                -21.82346600   -2.34076300   -3.24961600
 C                -21.34017100   -2.08605300   -4.65767200
 C                -23.32695900   -2.32480000   -3.06482100
 H                 15.73895200   -0.56710000    3.89204400
 H                 15.98708900   -1.69174500    2.54419900
 H                 13.61141000    0.24912700    2.85286200
 H                 11.49611400   -0.50318100    2.54398500
 H                 11.19406800   -2.23651200    2.54961300
 H                 11.59333600   -2.27220300    0.04787000
 H                 11.80007200   -0.53286400    0.08355000
 H                  9.23621900   -2.10021800    0.82422900
 H                  7.23508200   -1.32081000    0.21279200
 H                  7.17456000   -0.08810000   -1.03927500
 H                  7.14386400    1.69685900    0.72629200
 H                  7.20257400    0.46602500    1.97000000
 H                  4.93422100    0.84054800   -0.10304500
 H                  2.56853400   -0.78892700    1.77619000
 H                  2.82246600    0.32523000    0.44048300
 H                 14.77193600   -3.23132500    1.99721800
 H                 13.46772800   -3.35791000    0.81946600
 H                 13.18288700   -3.83147700    2.49004400
 H                 10.72945400    1.05556200   -0.59960600
 H                  9.33990100    1.93340900    0.03009900
 H                  9.27486000    1.24565800   -1.58666900
 H                  5.92231100   -0.29237600    3.35618500
 H                  4.38991700   -1.16489600    3.46881800
 H                  4.48085300    0.51893900    3.96385200
 H                  2.55299700    2.26253000    1.99219200
 H                  2.33189600    1.16862600    3.34337800
 H                  0.23284900    0.24969500    2.36488900
 H                 -2.19089300    2.56935300    1.60621900
 H                 -1.85861600    0.85930900    1.83333700
 H                 -1.48068200    0.59157900   -0.61721100
 H                 -1.76337100    2.30347200   -0.86611400
 H                 -4.12367200    2.11067200   -0.08605400
 H                 -6.05745500   -0.22149600   -1.71967400
 H                 -6.07807100    1.16583100   -0.64178900
 H                 -6.05197800   -0.35978400    1.33704400
 H                 -6.00871700   -1.75542100    0.27773200
 H                 -8.24945600   -1.21586300   -0.66560200
 H                -10.79707700   -0.79783500    1.62635700
 H                -10.41041800   -1.06414100   -0.06641600
 H                -10.45535000    1.38943900   -0.48562200
 H                -10.78221700    1.69611600    1.20847800
 H                -12.98380200    0.55270100    1.08754900
 H                  1.37571100    3.57445200    0.99144100
 H                 -0.25896300    4.18659800    1.27219900
 H                  0.14279200    3.42585500   -0.25908100
 H                 -2.45728300   -1.11708700   -1.11712500
 H                 -3.86857300   -1.45231500   -2.12801100
 H                 -3.84148500   -1.98472100   -0.45460700
 H                 -7.40016600    0.47419600    2.60396500
 H                 -8.94787400   -0.10682800    3.23140100
 H                 -8.85674600    1.45036800    2.42404000
 H                -11.48269800    1.53980400   -2.23380400
 H                -13.03674000    2.27117900   -2.65500600
 H                -12.73316100    0.58081800   -3.02344600
 H                -15.13931800    1.64630300   -1.35761700
 H                -14.99403200    0.69914900    0.11501800
 H                -14.64701600   -1.37250500   -1.24671100
 H                -14.77550700   -0.43688000   -2.72183400
 H                -17.13857900    0.18923400   -2.21082900
 H                -15.78444800   -2.69628000   -0.18843800
 H                -17.04475700   -3.70057800   -0.90514800
 H                -17.36324600   -2.83975700    0.59296400
 H                -19.18842600   -0.54038200   -1.69687300
 H                -19.35119600   -1.56982100   -0.28135400
 H                -19.22031900   -3.60282900   -1.75788900
 H                -19.08157800   -2.56576000   -3.16281800
 H                -21.49674100   -2.71581300   -1.23404200
 H                -20.26020900   -1.94887100   -4.71919500
 H                -21.81713700   -1.18708500   -5.06691600
 H                -21.60790500   -2.91133700   -5.32755500
 H                -23.56065800   -2.37731300   -1.99630400
 C                -24.07535200   -3.46856800   -3.79517500
 H                -23.73050400   -1.36952200   -3.42643300
 C                -25.54463100   -3.48341100   -3.47424800
 C                -26.58577300   -3.28693800   -4.29458900
 C                -28.00153300   -3.33085500   -3.77141200
 C                -26.48203300   -3.00411800   -5.77278000
 H                -23.62991800   -4.42125700   -3.47881400
 H                -23.90917100   -3.39272800   -4.87124400
 H                -25.77297200   -3.67028400   -2.42469000
 H                -28.03461600   -3.53906700   -2.69869200
 H                -28.58793700   -4.10137500   -4.28770400
 H                -28.51557000   -2.37762400   -3.95083100
 H                -25.45509300   -2.95881300   -6.13721800
 H                -26.96636700   -2.04912600   -6.01465600
 H                -27.01122500   -3.77356100   -6.34958300
 O                 18.20869700    3.66196600    0.29179200
 O                 17.09644000    3.98517200    2.73161300
 H                 17.34190100   -1.86314200    0.60208400
 H                 17.17907000   -0.94725400   -0.90297100
 H                 15.73226800   -1.45982100    0.00101000


































































