%chk=112-rad.chk
%nproc=8
%mem=30GB
#P UB3LYP/6-311++G(d,p) nosym  opt freq

Radical

-1 2
O     2.6006716044   -1.0948397745   -0.3820519258
C     1.3403969019   -0.5140221416   -0.2554805928
C     1.1996950885    0.7966283387   -0.1442533510
Cl    2.6446656514    1.7947658087   -0.1596817996
C    -0.1245900195    1.3842279799   -0.0130276349
O    -0.2632696409    2.6448947751    0.0941752318
C    -1.3400080938    0.5829170183    0.0029261289
C    -1.2069595757   -0.7259195781   -0.1076658761
Cl   -2.5994915077   -1.7858957690   -0.1004436030
C     0.1145399830   -1.3250088233   -0.2396076001
O     0.2906863489   -2.5690549139   -0.3479307067
O    -2.6084700024    1.1805995512    0.1313405172
H     2.9446724522   -1.6124356455    0.4343342498
H    -2.9925391903    1.2431431740    1.0873669623


