%chk=345-rad.chk
%nproc=8
%mem=30GB
#P UB3LYP/6-311++G(d,p) nosym opt freq

Radical

-1 2
O     1.9144379944   -2.9422752037    0.8254091076
C     1.4387776187   -1.8163244138    0.5522516956
C     0.0751210361   -1.6217596169    0.4782253592
C    -0.4166122946   -0.3838607605    0.1785638952
O     0.4400367247    0.5948283944   -0.0322817615
C     1.7378609336    0.4981021312    0.0174944363
C     2.5425105338    1.5911769024   -0.2211750992
C     3.9096621446    1.4522667534   -0.1600841840
C     4.4751298423    0.2310525799    0.1372195361
C     3.6492663356   -0.8482682185    0.3722326824
C     2.2792683089   -0.7522822646    0.3211168831
C    -1.8646643772   -0.0998571168    0.0818656175
C    -2.8379199519   -1.0460406637    0.2826915034
C    -4.1862990625   -0.7143806170    0.1769356110
C    -4.5368485379    0.5896779804   -0.1352573720
C    -3.5756937220    1.5532075329   -0.3403907482
C    -2.2520540228    1.2111049356   -0.2327142426
H    -0.6198414891   -2.4443756047    0.6559699888
H     2.1049859304    2.5497487029   -0.4544067159
H     4.5542248491    2.3265351191   -0.3509583112
H     5.5449589562    0.0896150423    0.1926809270
H     4.0500069825   -1.8405030804    0.6125567028
H    -2.5629502311   -2.0401966649    0.5208513973
H    -4.9074765389   -1.4821924080    0.3413351949
H    -5.6030403275    0.8355202002   -0.2150456188
H    -3.8626560700    2.5465183302   -0.5786083382
H    -1.4901915656    1.9629620286   -0.3925321800


