%chk=306.chk
%nproc=8
%mem=30GB
#P UB3LYP/6-311++G(d,p) nosym opt freq

Oxidized

0 1
C         -4.12082        3.63493        1.51258
C         -4.61223        3.86203        0.23052
C         -4.02487        3.22054       -0.85624
C         -2.94559        2.35182       -0.65900
C         -2.43636        2.11075        0.62890
C         -3.03779        2.76309        1.70979
C         -2.55485        2.55630        3.08568
C         -1.42409        1.64639        3.29460
C         -0.83141        1.01090        2.28149
C         -1.28780        1.19071        0.87005
O         -3.07063        3.11999        4.04235
O         -0.72570        0.59515       -0.04095
H         -4.58395        4.13939        2.36002
H         -4.41923        3.40747       -1.85187
O         -2.40124        1.74485       -1.75423
Br         0.61058       -0.14184        2.60157
H         -5.45132        4.53784        0.08021
H         -1.10247        1.52446        4.32305
H         -2.86210        2.01329       -2.56472







