%chk=180-an-PCM.chk
%nproc=8
%mem=30GB
#P UB3LYP/6-311++G(d,p) SCRF=(PCM,Solvent=n,n-DiMethylFormamide)

Reduced 

-2 1
C                 -1.5853080000      1.9274910000     -4.7082420000
C                 -1.5189170000      0.5729160000     -4.9337820000
C                 -1.2001710000     -0.3163790000     -3.8663150000
C                 -1.3429660000      2.4845870000     -3.4139360000
C                 -1.0229660000      1.5825490000     -2.3292860000
C                 -0.9614640000      0.1968740000     -2.6070730000
C                 -1.4079520000      3.8647960000     -3.1798530000
C                 -0.7631220000      2.0513330000     -0.9828080000
C                 -1.1782300000      4.3823440000     -1.8823390000
C                 -0.8666100000      3.4899920000     -0.7811840000
C                 -1.2805970000      5.8398380000     -1.6754750000
C                 -1.0765350000      6.3225310000     -0.3757090000
C                 -0.7843060000      5.4506500000      0.6947100000
C                 -0.6798980000      4.0990510000      0.4982660000
O                 -1.7071950000      4.7014600000     -4.2288140000
O                 -0.4610760000      1.2273670000     -0.0489550000
H                 -1.8251210000      2.6136960000     -5.5131950000
H                 -1.7082750000      0.1781380000     -5.9306720000
H                 -1.1444570000     -1.3878990000     -4.0461910000
H                 -0.7128290000     -0.4495810000     -1.7714060000
H                 -0.6434950000      5.8387590000      1.7004660000
O                 -1.5579150000      6.6299450000     -2.6757430000
O                 -0.5105920000      3.2986260000      1.6605340000
C                  0.6571810000      2.6592350000      1.8657940000
C                  0.4477750000      1.5032510000      2.8178270000
O                  1.7323590000      2.9927320000      1.4230510000
H                 -1.1529820000      7.3942250000     -0.2142300000
H                 -1.6980730000      5.6271860000     -3.7930090000
H                 -0.0273760000      0.7160010000      2.2277960000
H                 -0.2249690000      1.7874440000      3.6320660000
H                  1.4069430000      1.1637410000      3.2120420000





