%chk=140.chk
%nproc=8
%mem=30GB
#P UB3LYP/6-311++G(d,p) nosym opt freq

Oxidized

0 1
C    -4.9232296516   -1.1429919808    0.0553602807
O    -3.5332425481   -1.0226026105    0.0564392538
C    -2.8296799907    0.1494471171   -0.0005730285
C    -3.4765923805    1.3749357285   -0.0674677542
C    -2.7194047206    2.5093993387   -0.1222558134
C    -1.3243147452    2.4954004007   -0.1141860814
C    -0.6951105863    1.2732329822   -0.0475583381
C     0.7603205826    1.2087185239   -0.0365525420
O     1.4626082118    2.2493870509   -0.0867663819
C     1.4530105808   -0.0864287669    0.0341956723
C     2.8425295264   -0.1511241397    0.0448628404
O     3.5498499390    1.0323054834   -0.0127304196
C     4.9544150255    1.0793789958   -0.0077701071
C     3.4832635789   -1.3697772513    0.1113710046
C     2.7047034035   -2.5039485446    0.1660328194
C     1.3273074514   -2.4333315108    0.1551227894
C     0.6583365271   -1.2111797272    0.0882832128
C    -0.7953616537   -1.1758025270    0.0787966538
O    -1.4810972859   -2.2391999995    0.1302825321
C    -1.4567626708    0.1240687758    0.0079696876
H    -5.2769110018   -2.1020202556   -0.3824452652
H    -5.2762577053   -1.1421737325    1.1152651642
H    -5.4219198524   -0.3407602992   -0.5136944796
H    -4.5493142936    1.4572344300   -0.0773654164
H    -3.2247301930    3.4637774077   -0.1743617763
H    -0.7936833007    3.4259779623   -0.1596044236
H     5.2994657895    2.1115728863   -0.1720848180
H     5.4001849949    0.4719876658   -0.8403232135
H     5.3953176329    0.6873325007    0.9211005219
H     4.5622739428   -1.4244383533    0.1198772157
H     3.2193719363   -3.4553990752    0.2180296293
H     0.7046534567   -3.3129784759    0.1974274467


