%chk=228-rad.chk
%nproc=8
%mem=30GB
#P UB3LYP/6-311++G(d,p) nosym  opt freq

Radical

-1 2
C                  5.7900440000     -5.1428560000      1.2290280000
C                  6.7981520000     -5.0473750000      0.2809550000
C                  6.7019390000     -4.0996800000     -0.7529150000
C                  4.6800460000     -4.2951110000      1.1574550000
C                  4.5839040000     -3.3519100000      0.1279770000
C                  5.5926200000     -3.2516660000     -0.8281110000
C                  3.6001180000     -4.4013440000      2.1841080000
C                  2.4251720000     -3.4820140000      2.0868690000
C                  2.3266460000     -2.5808850000      1.0778700000
C                  3.3983250000     -2.4492640000      0.0452570000
O                  3.6845630000     -5.2233050000      3.0822150000
O                  3.3055570000     -1.6204600000     -0.8431700000
C                  7.7442420000     -4.0048100000     -1.7303560000
N                  8.5886250000     -3.9337830000     -2.5154060000
H                  5.8451350000     -5.8655740000      2.0312310000
H                  7.6615760000     -5.7012020000      0.3296220000
H                  5.5027150000     -2.5166330000     -1.6176820000
C                  1.3810990000     -3.6297890000      3.1635830000
C                  1.1733330000     -1.6335780000      0.9162220000
H                  1.7075160000     -4.3573600000      3.9059270000
H                  0.4299450000     -3.9755880000      2.7424030000
H                  1.1897280000     -2.6775010000      3.6615510000
H                  0.3104530000     -1.9333090000      1.5158700000
H                  0.8836610000     -1.5648680000     -0.1376290000
H                  1.4713890000     -0.6182580000      1.2214860000




















